_cell_length_a 20.1071
_cell_length_b 19.8791
_cell_length_c 13.3691
_cell_angle_alpha 90.
_cell_angle_beta  90.
_cell_angle_gamma 90.
loop_
_atom_site_type_symbol
_atom_site_fract_x
_atom_site_fract_y
_atom_site_fract_z
  Si  0.4205600020000000  0.0554599990000000  0.6801000240000000
  Si  0.5794399980000000  0.9445400240000000  0.3198999760000000
  Si  0.9205600020000000  0.4445399940000000  0.8198999760000000
  Si  0.0794399980000000  0.5554599760000000  0.1801000240000000
  Si  0.3136799930000000  0.0309000000000000  0.8364200000000001
  Si  0.6863200070000000  0.9690999980000000  0.1635800000000000
  Si  0.8136799930000000  0.4690999980000000  0.6635799999999999
  Si  0.1863200070000000  0.5309000020000000  0.3364200000000000
  Si  0.2795999940000000  0.0624900010000000  0.0534599980000000
  Si  0.7203999760000001  0.9375100140000000  0.9465399980000000
  Si  0.7796000239999999  0.4375100140000000  0.4465399980000000
  Si  0.2204000060000000  0.5624899860000000  0.5534600020000000
  Si  0.1239499970000000  0.0623300000000000  0.0367400010000000
  Si  0.8760499950000000  0.9376699920000000  0.9632599950000000
  Si  0.6239500050000000  0.4376699920000000  0.4632599950000000
  Si  0.3760499950000000  0.5623300080000000  0.5367400050000000
  Si  0.0767799990000000  0.0280399990000000  0.8240299820000000
  Si  0.9232199790000000  0.9719600080000000  0.1759700180000000
  Si  0.5767800210000000  0.4719600080000000  0.6759700180000000
  Si  0.4232200090000000  0.5280399920000000  0.3240299820000000
  Si  0.1955599930000000  0.0558499990000000  0.6866899730000000
  Si  0.8044400220000000  0.9441499710000000  0.3133100270000000
  Si  0.6955599780000000  0.4441500010000000  0.8133100270000000
  Si  0.3044400220000000  0.5558500290000000  0.1866899730000000
  Si  0.4254199860000000  0.8285200000000000  0.6807000040000000
  Si  0.5745800140000000  0.1714800000000000  0.3192999960000000
  Si  0.9254199860000000  0.6714800000000000  0.8192999960000000
  Si  0.0745800140000000  0.3285200000000000  0.1807000040000000
  Si  0.3122499880000000  0.8734700080000000  0.8261200190000000
  Si  0.6877499820000000  0.1265299920000000  0.1738799810000000
  Si  0.8122500180000000  0.6265299920000000  0.6738799810000000
  Si  0.1877500120000000  0.3734700080000000  0.3261200190000000
  Si  0.2732500140000000  0.8241000180000000  0.0359699990000000
  Si  0.7267500160000000  0.1758999820000000  0.9640300270000000
  Si  0.7732499840000000  0.6758999820000000  0.4640299980000000
  Si  0.2267499860000000  0.3241000180000000  0.5359699730000000
  Si  0.1189500020000000  0.8236600160000001  0.0343599990000000
  Si  0.8810499910000000  0.1763399840000000  0.9656400080000000
  Si  0.6189500090000000  0.6763399839999999  0.4656400080000000
  Si  0.3810499910000000  0.3236600160000000  0.5343599920000000
  Si  0.0715600030000000  0.8706099990000000  0.8248400090000000
  Si  0.9284399750000000  0.1293900010000000  0.1751599910000000
  Si  0.5715600250000000  0.6293900010000000  0.6751599910000000
  Si  0.4284400050000000  0.3706099990000000  0.3248400090000000
  Si  0.1907899980000000  0.8347200160000000  0.6859200000000000
  Si  0.8092100020000000  0.1652799840000000  0.3140800000000000
  Si  0.6907899980000000  0.6652799840000000  0.8140800000000000
  Si  0.3092100020000000  0.3347200160000000  0.1859200000000000
  Si  0.4283699990000000  0.4429700080000000  0.6654400230000000
  Si  0.5716300010000001  0.5570299630000000  0.3345599770000000
  Si  0.9283699989999999  0.0570299920000000  0.8345599770000000
  Si  0.0716300010000000  0.9429700370000000  0.1654400230000000
  Si  0.3123700020000000  0.4730499980000000  0.8118600250000000
  Si  0.6876299980000000  0.5269500020000000  0.1881399750000000
  Si  0.8123700020000000  0.0269500020000000  0.6881399750000000
  Si  0.1876299980000000  0.9730499980000000  0.3118600250000000
  Si  0.2770400050000000  0.4388900100000000  0.0294000000000000
  Si  0.7229599950000000  0.5611100200000000  0.9706000090000000
  Si  0.7770400050000000  0.0611099900000000  0.4706000090000000
  Si  0.2229599950000000  0.9388899800000000  0.5293999910000000
  Si  0.1215500010000000  0.4356299940000000  0.0337999980000000
  Si  0.8784499760000000  0.5643700360000000  0.9661999940000000
  Si  0.6215500240000000  0.0643700060000000  0.4661999940000000
  Si  0.3784500060000000  0.9356299640000000  0.5338000060000000
  Si  0.0709600000000000  0.4731500150000000  0.8215600250000000
  Si  0.9290400150000000  0.5268499850000000  0.1784399750000000
  Si  0.5709599850000000  0.0268499850000000  0.6784399750000000
  Si  0.4290400150000000  0.9731500150000000  0.3215600250000000
  Si  0.1873700020000000  0.4377799930000000  0.6825699810000000
  Si  0.8126299980000000  0.5622199770000000  0.3174300190000000
  Si  0.6873700020000000  0.0622200070000000  0.8174300190000000
  Si  0.3126299980000000  0.9377800230000000  0.1825699810000000
  Si  0.4238899950000000  0.6720399860000000  0.6858299970000000
  Si  0.5761100050000000  0.3279600140000000  0.3141700030000000
  Si  0.9238899950000000  0.8279600140000000  0.8141700030000000
  Si  0.0761100050000000  0.1720399860000000  0.1858299970000000
  Si  0.3127799930000000  0.6312999730000000  0.8316400050000000
  Si  0.6872199770000000  0.3687000270000000  0.1683599950000000
  Si  0.8127800230000000  0.8687000270000000  0.6683599950000000
  Si  0.1872200070000000  0.1312999730000000  0.3316400050000000
  Si  0.2731199860000000  0.6689199810000001  0.0460800010000000
  Si  0.7268800140000000  0.3310800190000000  0.9539200070000000
  Si  0.7731199860000000  0.8310800189999999  0.4539200070000000
  Si  0.2268800140000000  0.1689199810000000  0.5460799930000000
  Si  0.1186700020000000  0.6700699930000000  0.0386799980000000
  Si  0.8813300130000000  0.3299300070000000  0.9613199830000000
  Si  0.6186699870000000  0.8299300070000000  0.4613200130000000
  Si  0.3813300130000000  0.1700699930000000  0.5386800170000000
  Si  0.0726799960000000  0.6308199759999999  0.8224300150000000
  Si  0.9273200040000000  0.3691800240000000  0.1775699850000000
  Si  0.5726799960000000  0.8691800240000001  0.6775699850000000
  Si  0.4273200040000000  0.1308199760000000  0.3224300150000000
  Si  0.1944600050000000  0.6807000040000000  0.7021099930000000
  Si  0.8055399660000000  0.3192999960000000  0.2978900070000000
  Si  0.6944600340000000  0.8192999960000000  0.7978900070000000
  Si  0.3055399950000000  0.1807000040000000  0.2021099930000000
  O   0.3779000040000000  0.0588000010000000  0.7806000110000000
  O   0.6220999960000000  0.9412000180000000  0.2193999890000000
  O   0.8779000040000000  0.4411999880000000  0.7193999890000000
  O   0.1220999960000000  0.5587999820000000  0.2806000110000000
  O   0.3106000130000000  0.0662000030000000  0.9435999990000000
  O   0.6893999580000000  0.9337999820000000  0.0564000010000000
  O   0.8106000420000000  0.4337999820000000  0.5564000010000000
  O   0.1893999870000000  0.5662000180000000  0.4435999990000000
  O   0.2018000040000000  0.0472000020000000  0.0465000010000000
  O   0.7982000110000000  0.9527999760000000  0.9534999730000000
  O   0.7017999890000000  0.4528000060000000  0.4535000030000000
  O   0.2982000110000000  0.5472000240000000  0.5465000270000000
  O   0.1032000040000000  0.0671000030000000  0.9215999840000000
  O   0.8967999820000000  0.9329000119999999  0.0784000010000000
  O   0.6032000180000000  0.4329000120000000  0.5784000160000000
  O   0.3967999820000000  0.5670999880000001  0.4215999840000000
  O   0.1230000030000000  0.0443000010000000  0.7307000160000000
  O   0.8769999740000000  0.9556999800000000  0.2692999840000000
  O   0.6230000260000000  0.4557000100000000  0.7692999840000000
  O   0.3770000040000000  0.5443000200000000  0.2307000160000000
  O   0.2483000010000000  0.0476999990000000  0.7752000090000000
  O   0.7516999840000000  0.9523000120000000  0.2247999910000000
  O   0.7483000160000000  0.4523000120000000  0.7247999910000000
  O   0.2516999840000000  0.5476999880000000  0.2752000090000000
  O   0.3768999870000000  0.8467000130000000  0.7710999850000000
  O   0.6231000420000000  0.1532999870000000  0.2289000150000000
  O   0.8768999580000000  0.6532999870000000  0.7289000150000000
  O   0.1231000130000000  0.3467000130000000  0.2710999850000000
  O   0.3050000070000000  0.8331000210000000  0.9275000100000000
  O   0.6949999930000000  0.1668999790000000  0.0724999980000000
  O   0.8050000070000000  0.6668999790000000  0.5724999900000000
  O   0.1949999930000000  0.3331000210000000  0.4275000100000000
  O   0.1959999950000000  0.8442000150000000  0.0315999980000000
  O   0.8040000200000000  0.1557999850000000  0.9684000020000000
  O   0.6959999800000000  0.6557999850000000  0.4684000020000000
  O   0.3040000200000000  0.3442000150000000  0.5315999980000000
  O   0.0885000010000000  0.8310999870000000  0.9247000220000000
  O   0.9114999770000000  0.1689000130000000  0.0753000010000000
  O   0.5885000230000000  0.6689000130000000  0.5752999780000000
  O   0.4115000070000000  0.3310999870000000  0.4246999920000000
  O   0.1208000030000000  0.8489000200000000  0.7369999890000000
  O   0.8791999820000000  0.1510999800000000  0.2630000110000000
  O   0.6208000180000000  0.6510999800000000  0.7630000110000000
  O   0.3791999820000000  0.3489000200000000  0.2369999890000000
  O   0.2483000010000000  0.8623999950000000  0.7576000090000000
  O   0.7516999840000000  0.1376000050000000  0.2423999910000000
  O   0.7483000160000000  0.6376000050000000  0.7423999910000000
  O   0.2516999840000000  0.3623999950000000  0.2576000090000000
  O   0.3188999890000000  0.9514999990000000  0.8510000110000000
  O   0.6811000109999999  0.0485000010000000  0.1489999890000000
  O   0.8188999890000001  0.5485000010000000  0.6489999890000000
  O   0.1811000110000000  0.4514999990000000  0.3510000110000000
  O   0.0781000030000000  0.9491000180000000  0.8471000190000000
  O   0.9218999740000000  0.0509000010000000  0.1528999810000000
  O   0.5781000260000000  0.5508999820000000  0.6528999810000000
  O   0.4219000040000000  0.4490999880000000  0.3471000190000000
  O   0.4144999980000000  0.1253000050000000  0.6229000090000000
  O   0.5855000020000000  0.8747000100000000  0.3770999910000000
  O   0.9144999980000000  0.3747000100000000  0.8770999910000000
  O   0.0855000020000000  0.6252999900000000  0.1229000090000000
  O   0.3923000100000000  0.9958999750000000  0.6108000280000000
  O   0.6076999900000000  0.0041000000000000  0.3891999720000000
  O   0.8923000100000000  0.5041000250000000  0.8891999720000000
  O   0.1076999900000000  0.4959000050000000  0.1108000280000000
  O   0.4022000130000000  0.8659999970000000  0.5813999770000000
  O   0.5978000160000000  0.1340000030000000  0.4186000230000000
  O   0.9021999840000000  0.6340000030000000  0.9186000230000000
  O   0.0977999870000000  0.3659999970000000  0.0813999770000000
  O   0.2002999930000000  0.1298000070000000  0.6417000290000000
  O   0.7997000220000000  0.8701999780000000  0.3582999710000000
  O   0.7002999780000000  0.3701999780000000  0.8582999710000000
  O   0.2997000220000000  0.6298000220000000  0.1417000290000000
  O   0.2099000070000000  0.0026000000000000  0.5992000100000000
  O   0.7900999780000000  0.9973999860000000  0.4007999900000000
  O   0.7099000220000000  0.4973999860000000  0.9007999900000000
  O   0.2900999780000000  0.5026000140000000  0.0992000100000000
  O   0.1948000040000000  0.8725000020000000  0.5812000040000000
  O   0.8051999810000000  0.1274999980000000  0.4187999960000000
  O   0.6948000190000000  0.6274999980000000  0.9187999960000000
  O   0.3051999810000000  0.3725000020000000  0.0812000040000000
  O   0.0032000000000000  0.0515000000000000  0.7958999870000000
  O   0.9968000050000000  0.9484999780000000  0.2041000130000000
  O   0.5031999950000000  0.4485000070000000  0.7041000130000000
  O   0.4968000050000000  0.5515000220000000  0.2958999870000000
  O   0.9976999760000000  0.8525000210000000  0.7901999950000000
  O   0.0023000000000000  0.1474999790000000  0.2098000050000000
  O   0.4977000060000000  0.6474999790000000  0.7098000050000000
  O   0.5023000240000000  0.3525000210000000  0.2901999950000000
  O   0.4239000080000000  0.7498999830000000  0.6586999890000000
  O   0.5760999919999999  0.2501000170000000  0.3413000110000000
  O   0.9239000080000001  0.7501000170000000  0.8413000110000000
  O   0.0760999920000000  0.2498999830000000  0.1586999890000000
  O   0.1986999960000000  0.7565000060000000  0.6643999810000000
  O   0.8012999890000000  0.2434999940000000  0.3356000190000000
  O   0.6987000110000000  0.7434999940000000  0.8356000190000000
  O   0.3012999890000000  0.2565000060000000  0.1643999810000000
  O   0.2822000090000000  0.7475000020000000  0.0675999970000000
  O   0.7178000210000000  0.2524999980000000  0.9323999880000000
  O   0.7821999790000000  0.7524999980000000  0.4323999880000000
  O   0.2177999910000000  0.2475000020000000  0.5676000120000000
  O   0.1101000010000000  0.7473999860000000  0.0697000030000000
  O   0.8898999690000000  0.2526000140000000  0.9302999970000000
  O   0.6101000310000000  0.7526000140000000  0.4302999970000000
  O   0.3898999990000000  0.2473999860000000  0.5697000030000000
  O   0.3799000080000000  0.4503000080000000  0.7591999770000000
  O   0.6201000209999999  0.5497000220000000  0.2408000230000000
  O   0.8798999790000001  0.0496999920000000  0.7408000230000000
  O   0.1200999920000000  0.9502999780000000  0.2591999770000000
  O   0.3143000010000000  0.4480000140000000  0.9246000049999999
  O   0.6856999990000000  0.5519999860000000  0.0754000020000000
  O   0.8143000010000000  0.0519999860000000  0.5753999950000001
  O   0.1856999990000000  0.9480000140000000  0.4246000050000000
  O   0.1991000030000000  0.4318000080000000  0.0094000000000000
  O   0.8008999820000000  0.5681999920000000  0.9905999900000000
  O   0.6991000180000000  0.0681999920000000  0.4905999900000000
  O   0.3008999820000000  0.9318000080000000  0.5094000100000000
  O   0.0812000040000000  0.4478000100000000  0.9330999850000000
  O   0.9187999960000000  0.5521999600000000  0.0669000000000000
  O   0.5812000040000000  0.0521999900000000  0.5669000150000000
  O   0.4187999960000000  0.9478000400000000  0.4330999850000000
  O   0.1206000000000000  0.4350999890000000  0.7473000290000000
  O   0.8794000150000000  0.5649000410000000  0.2526999710000000
  O   0.6205999850000000  0.0649000110000000  0.7526999710000000
  O   0.3794000150000000  0.9350999590000000  0.2473000290000000
  O   0.2504999940000000  0.4401000140000000  0.7548999790000001
  O   0.7495000360000000  0.5598999860000000  0.2451000210000000
  O   0.7504999640000000  0.0598999860000000  0.7451000209999999
  O   0.2495000060000000  0.9401000140000000  0.2548999790000000
  O   0.3797000050000000  0.6589999790000000  0.7831000090000000
  O   0.6202999950000000  0.3410000210000000  0.2168999910000000
  O   0.8797000050000000  0.8410000210000000  0.7168999910000000
  O   0.1202999950000000  0.1589999790000000  0.2831000090000000
  O   0.3147999940000000  0.6459000110000001  0.9491999750000000
  O   0.6851999760000000  0.3540999890000000  0.0507999990000000
  O   0.8148000240000000  0.8540999889999999  0.5508000250000000
  O   0.1852000060000000  0.1459000110000000  0.4492000040000000
  O   0.1960999970000000  0.6513000130000000  0.0270000010000000
  O   0.8039000030000000  0.3486999870000000  0.9729999900000000
  O   0.6960999970000000  0.8486999870000000  0.4729999900000000
  O   0.3039000030000000  0.1513000130000000  0.5270000100000000
  O   0.0821999980000000  0.6559000020000000  0.9347000120000000
  O   0.9178000090000000  0.3440999980000000  0.0653000030000000
  O   0.5821999910000000  0.8440999980000000  0.5652999880000000
  O   0.4178000090000000  0.1559000020000000  0.4347000120000000
  O   0.1231999990000000  0.6678000090000000  0.7495999930000000
  O   0.8768000010000000  0.3321999910000000  0.2504000070000000
  O   0.6231999990000000  0.8321999910000000  0.7504000070000000
  O   0.3768000010000000  0.1678000090000000  0.2495999930000000
  O   0.2496999950000000  0.6693999770000000  0.7856000070000000
  O   0.7502999900000000  0.3306000230000000  0.2143999930000000
  O   0.7497000100000000  0.8306000230000000  0.7143999930000000
  O   0.2502999900000000  0.1693999770000000  0.2856000070000000
  O   0.3054000140000000  0.5529999730000000  0.8087000250000000
  O   0.6945999859999999  0.4470000270000000  0.1912999750000000
  O   0.8054000140000001  0.9470000270000000  0.6912999750000000
  O   0.1945999860000000  0.0529999730000000  0.3087000250000000
  O   0.0851000030000000  0.5519000290000000  0.8166000250000000
  O   0.9149000050000000  0.4480999710000000  0.1833999750000000
  O   0.5850999950000000  0.9480999710000000  0.6833999750000000
  O   0.4149000050000000  0.0519000290000000  0.3166000250000000
  O   0.4185999930000000  0.3713999990000000  0.6115000250000000
  O   0.5814000370000000  0.6286000010000000  0.3884999750000000
  O   0.9185999630000000  0.1286000010000000  0.8884999750000000
  O   0.0814000070000000  0.8713999990000000  0.1115000250000000
  O   0.4153999980000000  0.5015000100000000  0.5864999890000000
  O   0.5845999720000000  0.4984999900000000  0.4135000110000000
  O   0.9154000280000000  0.9984999900000000  0.9135000110000000
  O   0.0846000020000000  0.0015000100000000  0.0864999890000000
  O   0.3937999900000000  0.6320000290000000  0.5913000110000000
  O   0.6061999800000000  0.3679999710000000  0.4086999890000000
  O   0.8938000200000000  0.8679999710000000  0.9086999890000000
  O   0.1062000100000000  0.1320000290000000  0.0913000110000000
  O   0.1899999980000000  0.3711000080000000  0.6153000000000000
  O   0.8100000020000000  0.6288999920000000  0.3847000000000000
  O   0.6899999980000000  0.1288999920000000  0.8847000000000000
  O   0.3100000020000000  0.8711000080000000  0.1153000000000000
  O   0.1861999930000000  0.5031999950000000  0.6136999730000000
  O   0.8137999770000000  0.4968000050000000  0.3863000270000000
  O   0.6862000230000000  0.9968000050000000  0.8863000270000000
  O   0.3138000070000000  0.0031999950000000  0.1136999730000000
  O   0.2073999940000000  0.6326000090000000  0.6086000200000000
  O   0.7926000360000000  0.3673999910000000  0.3913999800000000
  O   0.7073999640000000  0.8673999910000000  0.8913999800000000
  O   0.2926000060000000  0.1326000090000000  0.1086000200000000
  O   0.9961000080000000  0.4575999980000000  0.7896000150000000
  O   0.0039000000000000  0.5424000020000000  0.2103999850000000
  O   0.4961000080000000  0.0424000020000000  0.7103999850000000
  O   0.5038999920000000  0.9575999980000000  0.2896000150000000
  O   0.9987000230000000  0.6481000190000000  0.7879999880000000
  O   0.0013000000000000  0.3518999810000000  0.2120000120000000
  O   0.4986999930000000  0.8518999810000000  0.7120000120000000
  O   0.5012999770000000  0.1481000190000000  0.2879999880000000
