_cell_length_a 20.1071
_cell_length_b 19.8791
_cell_length_c 13.3691
_cell_angle_alpha 90.
_cell_angle_beta  90.
_cell_angle_gamma 90.
loop_
_atom_site_type_symbol
_atom_site_fract_x
_atom_site_fract_y
_atom_site_fract_z
  Si -0.0485073331287842  0.4360747565378418 -0.3294669983236083
  Si  0.1103726628712158  0.3251547815378417  0.3103329536763917
  Si  0.4514926668712159 -0.1748452484621581 -0.1896670463236083
  Si -0.3896273371287841 -0.0639252664621583  0.1705330016763916
  Si  0.2172526718712160  0.3497147555378417  0.1540129776763917
  Si  0.3446126578712160 -0.1502852444621581 -0.3459870223236083
  Si -0.2827473281287844 -0.0884852404621583  0.3268529776763915
  Si -0.1894673411287841  0.4431047585378418  0.0438929756763915
  Si  0.2513326408712159  0.3181247715378417 -0.0630270243236084
  Si  0.3105326888712157 -0.1818752284621581  0.4369729756763915
  Si -0.2486673291287842 -0.0568952564621585 -0.4561070203236083
  Si -0.3451173381287841  0.4429447575378418  0.0271729786763917
  Si  0.4069826598712160  0.3182847495378418 -0.0463070273236084
  Si  0.1548826698712160 -0.1817152504621582  0.4536929726763916
  Si -0.0930173401287844 -0.0570552344621582 -0.4728270173236086
  Si -0.3922873361287844  0.4086547565378417 -0.1855370403236083
  Si  0.4541526438712158  0.3525747655378417  0.1664029956763915
  Si  0.1077126858712158 -0.1474252344621583 -0.3335970043236081
  Si -0.0458473261287842 -0.0913452504621584  0.3144629596763917
  Si -0.2735073421287841  0.4364647565378417 -0.3228770493236082
  Si  0.2264926428712160 -0.1752352414621580 -0.1962569953236084
  Si -0.1646273131287841 -0.0635352134621583  0.1771229506763916
  Si -0.0436473491287841  0.2091347575378417 -0.3288670183236084
  Si  0.1055126788712161 -0.4479052424621581  0.3097329736763916
  Si  0.4563526508712156  0.0520947575378417 -0.1902670263236084
  Si -0.1568173471287841  0.2540847655378418 -0.1834470033236082
  Si  0.2186826468712160 -0.4928552504621582  0.1643129586763915
  Si  0.3431826828712158  0.0071447495378418 -0.3356870413236082
  Si -0.2813173231287842 -0.2459152344621582  0.3165529966763916
  Si  0.2576826808712159 -0.4434852604621581 -0.0455369953236084
  Si  0.3041826488712159  0.0565147395378417  0.4544629756763915
  Si -0.2423173491287844 -0.2952852244621582 -0.4735970493236083
  Si -0.3501173331287841  0.2042747735378418  0.0247929766763916
  Si  0.4119826558712159 -0.4430452584621582 -0.0439270143236083
  Si  0.1498826738712158  0.0569547415378416  0.4560729856763917
  Si -0.0880173441287839 -0.2957252264621582 -0.4752070303236086
  Si -0.3975073321287843  0.2512247565378418 -0.1847270133236083
  Si  0.4593726398712156 -0.4899952414621582  0.1655929686763916
  Si  0.1024926898712161  0.0100047585378418 -0.3344070313236083
  Si -0.0406273301287843 -0.2487752434621582  0.3152729866763916
  Si -0.2782773371287845  0.2153347735378418 -0.3236470223236081
  Si  0.3401426668712157 -0.4541052584621581  0.3045129776763917
  Si  0.2217226628712159  0.0458947415378417 -0.1954870223236082
  Si -0.1598573331287842 -0.2846652264621581  0.1763529776763914
  Si -0.0406973361287841 -0.1764152344621582 -0.3441269993236080
  Si  0.1025626658712160 -0.0623552794621582  0.3249929546763916
  Si  0.4593026638712156  0.4376447495378418 -0.1750070453236083
  Si -0.3974373341287842  0.3235847945378418  0.1558730006763914
  Si -0.1566973331287842 -0.1463352444621582 -0.1977069973236083
  Si  0.2185626628712160 -0.0924352404621582  0.1785729526763914
  Si  0.3433026668712159  0.4075647595378417 -0.3214270473236081
  Si -0.2814373371287843  0.3536647555378418  0.3022930026763914
  Si -0.1920273301287843 -0.1804952324621583  0.0198329776763915
  Si  0.2538926598712156 -0.0582752224621583 -0.0389670133236084
  Si -0.2461073401287845  0.3195047375378417 -0.4801670313236083
  Si -0.3475173341287841 -0.1837552484621581  0.0242329756763917
  Si  0.4093826408712158 -0.0550152064621583 -0.0433670283236085
  Si  0.1524826888712160  0.4449847635378417  0.4566329716763914
  Si -0.0906173291287842  0.3162447215378417 -0.4757670163236082
  Si  0.4599726798712160 -0.0925352574621583  0.1688729526763914
  Si  0.1018926498712157  0.4074647425378418 -0.3311270473236081
  Si -0.0400273201287842  0.3537647725378417  0.3119930026763917
  Si -0.2816973331287844 -0.1816052494621581 -0.3269970413236083
  Si  0.3435626628712158 -0.0571652654621584  0.3078629966763917
  Si  0.2183026668712158  0.4428347645378416 -0.1921370033236083
  Si -0.1564373371287841  0.3183947805378416  0.1730029586763914
  Si -0.0451773401287840  0.0526547435378417 -0.3237370253236082
  Si  0.1070426698712160 -0.2914252284621581  0.3046029806763914
  Si  0.4548226598712157  0.2085747715378418 -0.1953970193236085
  Si -0.3929573301287843 -0.4473452564621583  0.1762629746763915
  Si -0.1562873421287842  0.0119147305378418 -0.1779270173236080
  Si  0.2181526418712158 -0.2506852154621582  0.1587929726763914
  Si  0.3437126878712157  0.2493147845378418 -0.3412070273236083
  Si -0.2818473281287843 -0.4880852694621580  0.3220729826763917
  Si -0.1959473491287842  0.0495347385378417  0.0365129786763916
  Si  0.2578126788712158 -0.2883052234621582 -0.0556470153236084
  Si  0.3040526508712157  0.2116947765378416  0.4443529846763916
  Si -0.2421873211287841 -0.4504652614621580 -0.4634870293236084
  Si -0.3503973331287841  0.0506847505378418  0.0291129756763916
  Si  0.4122626778712159 -0.2894552354621582 -0.0482470393236083
  Si  0.1496026518712158  0.2105447645378418  0.4517529906763915
  Si -0.0877373221287840 -0.4493152494621582 -0.4708870053236082
  Si  0.1036126608712156  0.2497947815378418 -0.3319970373236081
  Si -0.0417473311287844 -0.4885652664621581  0.3128629926763917
  Si -0.2746073301287841  0.0613147615378418 -0.3074570293236083
  Si  0.3364726308712158 -0.3000852464621582  0.2883229846763917
  Si  0.2253926988712158  0.1999147535378418 -0.2116770153236081
  Si -0.1635273401287842 -0.4386852384621582  0.1925429706763913
  O  -0.0911673311287842  0.4394147585378418 -0.2289670113236084
  O   0.1530326608712159  0.3218147755378417  0.2098329666763916
  O   0.4088326688712158 -0.1781852544621581 -0.2901670333236082
  O  -0.3469673391287844 -0.0605852604621582  0.2710329886763915
  O  -0.1584673221287842  0.4468147605378416 -0.0659670233236085
  O   0.2203326228712159  0.3144147395378418  0.0468329786763915
  O   0.3415327068712158 -0.1855852604621582 -0.4531670213236083
  O  -0.2796673481287841 -0.0531852244621582  0.4340329766763917
  O  -0.2672673311287841  0.4278147595378416  0.0369329786763917
  O   0.3291326758712160  0.3334147335378417 -0.0560670493236084
  O   0.2327326538712159 -0.1665852364621583  0.4439329806763916
  O  -0.1708673241287843 -0.0721852184621583 -0.4630669953236083
  O  -0.3658673311287841  0.4477147605378420 -0.0879670383236084
  O   0.4277326468712156  0.3135147695378417  0.0688329786763916
  O   0.1341326828712160 -0.1864852304621582 -0.4311670063236083
  O  -0.0722673531287841 -0.0522852544621581  0.4120329616763915
  O  -0.3460673321287841  0.4249147585378418 -0.2788670063236083
  O   0.4079326388712156  0.3363147375378417  0.2597329616763913
  O   0.1539326908712160 -0.1636852324621583 -0.2402670383236085
  O  -0.0920673311287843 -0.0750852224621583  0.2211329936763915
  O  -0.2207673341287843  0.4283147565378417 -0.2343670133236084
  O   0.2826326488712159  0.3329147695378418  0.2152329686763915
  O   0.2792326808712157 -0.1670852304621581 -0.2847670313236086
  O  -0.2173673511287841 -0.0716852544621585  0.2656329866763914
  O  -0.0921673481287841  0.2273147705378418 -0.2384670373236084
  O   0.1540327068712159 -0.4660852554621582  0.2193329926763916
  O   0.4078326228712156  0.0339147445378416 -0.2806670073236083
  O  -0.3459673221287842 -0.2726852294621582  0.2615329626763915
  O  -0.1640673281287841  0.2137147785378418 -0.0820670123236082
  O   0.2259326578712159 -0.4524852634621581  0.0629329756763914
  O   0.3359326718712157  0.0475147365378418 -0.4370670323236083
  O  -0.2740673421287840 -0.2862852214621580  0.4179329876763915
  O  -0.2730673401287844  0.2248147725378417  0.0220329756763916
  O   0.3349326848712157 -0.4635852574621582 -0.0411670203236083
  O   0.2269326448712159  0.0364147425378418  0.4588329796763916
  O  -0.1650673151287843 -0.2751852274621582 -0.4779670243236084
  O  -0.3805673341287843  0.2117147445378418 -0.0848670003236083
  O   0.4424326418712158 -0.4504852294621582  0.0657329786763916
  O   0.1194326878712162  0.0495147705378418 -0.4342670443236082
  O  -0.0575673281287841 -0.2882852554621582  0.4151329696763916
  O  -0.3482673321287841  0.2295147775378417 -0.2725670333236080
  O   0.4101326468712159 -0.4682852624621581  0.2534329886763914
  O   0.1517326828712157  0.0317147375378417 -0.2465670113236080
  O  -0.0898673531287841 -0.2704852224621581  0.2274329666763913
  O  -0.2207673341287843  0.2430147525378419 -0.2519670133236083
  O   0.2826326488712159 -0.4817852374621582  0.2328329686763913
  O   0.2792326808712157  0.0182147625378417 -0.2671670313236083
  O  -0.2173673511287841 -0.2569852474621581  0.2480329866763914
  O  -0.1501673461287842  0.3321147565378417 -0.1585670113236084
  O   0.2120326758712157  0.4291147585378419  0.1394329666763916
  O   0.3498326538712160 -0.0708852414621584 -0.3605670333236083
  O  -0.2879673241287843 -0.1678852434621581  0.3414329886763915
  O  -0.3909673321287840  0.3297147755378418 -0.1624670033236084
  O   0.4528326388712158  0.4315147585378418  0.1433329586763915
  O   0.1090326908712158 -0.0684852604621582 -0.3566670413236081
  O  -0.0471673311287841 -0.1702852544621583  0.3375329966763915
  O  -0.0545673371287842 -0.4940852374621582 -0.3866670133236081
  O   0.1164326668712159  0.2553147675378415  0.3675329686763917
  O   0.4454326628712159 -0.2446852324621583 -0.1324670313236083
  O  -0.3835673331287843  0.0059147475378418  0.1133329866763915
  O  -0.0767673251287841  0.3765147325378417 -0.3987669943236082
  O   0.1386326548712158  0.3847147575378418  0.3796329496763917
  O   0.4232326748712159 -0.1152852174621584 -0.1203670503236083
  O  -0.3613673451287842 -0.1234852374621582  0.1012330056763915
  O  -0.0668673221287841  0.2466147545378417 -0.4281670453236086
  O   0.1287326808712160 -0.4853852394621581  0.4090330006763915
  O   0.4331326488712159  0.0146147605378417 -0.0909669993236084
  O  -0.3712673481287840 -0.2533852454621581  0.0718329546763916
  O  -0.2687673421287842 -0.4895852354621583 -0.3678669933236081
  O   0.3306326868712158  0.2508147355378418  0.3487329486763917
  O   0.2312326428712158 -0.2491852644621581 -0.1512670513236083
  O  -0.1693673131287841  0.0104147795378418  0.1321330066763915
  O  -0.2591673281287842  0.3832147575378418 -0.4103670123236082
  O   0.3210326428712159  0.3780147435378418  0.3912329676763917
  O   0.2408326868712160 -0.1219852564621582 -0.1087670323236085
  O  -0.1789673571287842 -0.1167852284621582  0.0896329876763915
  O  -0.2742673311287844  0.2531147595378417 -0.4283670183236085
  O   0.3361326458712157 -0.4918852444621583  0.4092329736763916
  O   0.2257326838712157  0.0081147555378418 -0.0907670263236084
  O  -0.1638673541287841 -0.2468852404621582  0.0716329816763916
  O  -0.4658673351287840  0.4321147575378418 -0.2136670353236081
  O  -0.4722673301287842  0.3291147355378417  0.1945329906763917
  O   0.0341326598712158 -0.1708852354621582 -0.3054670093236083
  O   0.0277326698712157 -0.0678852204621583  0.2863329646763917
  O  -0.4713673591287840  0.2331147785378418 -0.2193670273236083
  O  -0.4667673351287842 -0.4718852634621583  0.2002329826763914
  O   0.0286326708712157  0.0281147365378418 -0.2997670173236084
  O   0.0332326888712158 -0.2668852214621582  0.2806329726763916
  O  -0.0451673271287842  0.1305147405378417 -0.3508670333236086
  O   0.1070326568712159 -0.3692852254621581  0.3317329886763918
  O   0.4548326728712159  0.1307147745378416 -0.1682670113236084
  O  -0.3929673431287841 -0.3694852594621580  0.1491329666763915
  O  -0.2703673391287844  0.1371147635378418 -0.3451670413236081
  O   0.3322326538712156 -0.3758852484621582  0.3260329966763917
  O   0.2296326758712159  0.1241147515378418 -0.1739670033236083
  O  -0.1677673461287841 -0.3628852364621582  0.1548329586763915
  O  -0.1868673261287843  0.1281147595378417  0.0580329746763915
  O   0.2487326858712157 -0.3668852444621581 -0.0771670343236084
  O   0.3131326438712159  0.1331147555378418  0.4228329656763916
  O  -0.2512673441287842 -0.3718852404621582 -0.4419670103236084
  O  -0.3589673341287842  0.1280147435378418  0.0601329806763916
  O   0.4208326338712159 -0.3667852284621582 -0.0792670253236083
  O   0.1410326958712158  0.1332147715378418  0.4207329746763917
  O  -0.0791673361287841 -0.3719852564621582 -0.4398670193236085
  O  -0.0891673271287841 -0.1690852344621581 -0.2503670453236084
  O   0.1510326858712158 -0.0696852204621585  0.2312330006763915
  O   0.4108326438712157  0.4303147495378416 -0.2687669993236086
  O  -0.3489673431287840  0.3309147355378419  0.2496329546763914
  O  -0.1547673341287843 -0.1713852284621583 -0.0849670173236083
  O   0.2166326638712158 -0.0673852564621582  0.0658329796763914
  O   0.3452326658712158  0.4326147435378418 -0.4341670273236084
  O  -0.2833673361287843  0.3286147715378418  0.4150329826763916
  O  -0.2699673321287843 -0.1875852344621583 -0.0001670223236085
  O   0.3318326468712158 -0.0511852504621582 -0.0189670323236084
  O   0.2300326828712158  0.4488147495378418  0.4810329676763915
  O  -0.1681673531287841  0.3124147655378418  0.4998329876763916
  O  -0.3878673311287843 -0.1715852324621581 -0.0764670373236083
  O   0.4497326608712157 -0.0671852824621582  0.0573329776763916
  O   0.1121326688712159  0.4328147475378417 -0.4426670073236085
  O  -0.0502673391287842  0.3284147975378418  0.4235329626763917
  O  -0.3484673351287843 -0.1842852534621582 -0.2622669933236086
  O   0.4103326798712156 -0.0544852014621582  0.2431329486763914
  O   0.1515326498712161  0.4455147685378418 -0.2568670513236082
  O  -0.0896673201287841  0.3157147165378418  0.2377330066763915
  O  -0.2185673411287843 -0.1792852284621582 -0.2546670433236082
  O   0.2804327008712160 -0.0594852564621582  0.2355329986763915
  O   0.2814326288712156  0.4405147435378418 -0.2644670013236083
  O  -0.2195673291287843  0.3207147715378418  0.2453329566763914
  O  -0.0893673301287840  0.0396147365378416 -0.2264670133236086
  O   0.1512326598712158 -0.2783852214621581  0.2073329686763916
  O   0.4106326698712159  0.2216147785378419 -0.2926670313236083
  O  -0.3487673401287843 -0.4603852634621581  0.2735329866763914
  O  -0.1542673411287840  0.0265147685378417 -0.0603670473236084
  O   0.2161326408712159 -0.2652852534621581  0.0412329766763915
  O   0.3457326888712159  0.2347147465378417 -0.4587669973236083
  O  -0.2838673291287843 -0.4734852314621583  0.4396329816763915
  O  -0.2729673381287840  0.0319147705378415  0.0174329786763917
  O   0.3348326678712157 -0.2706852554621582 -0.0365670323236082
  O   0.2270326618712159  0.2293147445378418  0.4634329676763917
  O  -0.1651673321287841 -0.4680852294621580 -0.4825670123236083
  O  -0.3868673371287840  0.0365147595378417 -0.0748670103236084
  O   0.4487326738712160 -0.2752852444621581  0.0557329806763915
  O   0.1131326558712158  0.2247147555378417 -0.4442670343236085
  O  -0.0512673261287842 -0.4634852404621581  0.4251329896763916
  O  -0.3458673361287842  0.0484147665378418 -0.2599670293236082
  O   0.4077326658712159 -0.2871852514621582  0.2408329846763913
  O   0.1541326638712159  0.2128147485378418 -0.2591670153236083
  O  -0.0922673341287841 -0.4515852334621582  0.2400329706763914
  O  -0.2193673401287841  0.0500147345378417 -0.2239670153236084
  O   0.2812326548712158 -0.2887852194621581  0.2048329706763915
  O   0.2806326748712157  0.2112147805378417 -0.2951670293236084
  O  -0.2187673451287841 -0.4499852654621581  0.2760329846763914
  O  -0.1636673211287842 -0.0663852694621583 -0.2008669973236083
  O   0.2255326508712159 -0.1723852154621581  0.1817329526763914
  O   0.3363326788712158  0.3276147845378417 -0.3182670473236084
  O  -0.2744673491287841  0.4336147305378418  0.2991330026763916
  O  -0.3839673321287842 -0.0674852134621582 -0.1929669973236081
  O   0.4458326698712158 -0.1712852714621583  0.1738329526763914
  O   0.1160326598712158  0.3287147285378418 -0.3261670473236082
  O  -0.0541673301287842  0.4325147865378418  0.3070330026763917
  O  -0.0504673421287842 -0.2479852434621581 -0.3980669973236083
  O   0.1123327018712160  0.0092147585378417  0.3789329526763915
  O   0.4495326278712160 -0.4907852414621582 -0.1210670473236084
  O  -0.3876673281287841  0.2520147565378418  0.1019330026763917
  O  -0.0536673371287841 -0.1178852324621582 -0.4230670333236083
  O   0.1155326368712161 -0.1208852524621582  0.4039329886763915
  O   0.4463326928712156  0.3791147475378418 -0.0960670113236082
  O  -0.3844673331287840  0.3821147675378419  0.0769329666763916
  O  -0.0752673451287842  0.0126147865378416 -0.4182670113236084
  O   0.1371326448712159 -0.2513852714621583  0.3991329666763916
  O   0.4247326848712158  0.2486147285378419 -0.1008670333236084
  O  -0.3628673251287841 -0.4873852134621581  0.0817329886763917
  O  -0.2790673371287844 -0.2482852344621582 -0.3942670223236084
  O   0.3409326668712158  0.0095147495378418  0.3751329776763916
  O   0.2209326628712159 -0.4904852504621583 -0.1248670223236083
  O  -0.1590673331287842  0.2517147655378418  0.1057329776763915
  O  -0.2828673421287843 -0.1161852474621582 -0.3958670493236084
  O   0.3447326418712158 -0.1225852374621584  0.3767330046763916
  O   0.2171326878712160  0.3774147625378417 -0.1232669953236083
  O  -0.1552673281287842  0.3838147525378418  0.1041329506763916
  O  -0.2616673411287842  0.0132147665378417 -0.4009670023236082
  O   0.3235327008712158 -0.2519852514621581  0.3818329576763916
  O   0.2383326288712160  0.2480147485378418 -0.1181670423236085
  O  -0.1764673291287842 -0.4867852334621582  0.0990329976763915
  O  -0.4729673271287841 -0.1617852444621582 -0.2199670073236086
  O  -0.4651673351287839 -0.0769852404621583  0.2008329626763916
  O   0.0270326728712157  0.4230147595378417 -0.2991670373236084
  O   0.0348326568712158  0.3382147555378416  0.2800329926763915
  O  -0.4703673121287841  0.0287147765378417 -0.2215670343236082
  O  -0.4677673351287840 -0.2674852614621581  0.2024329896763914
  O   0.0296326578712157  0.2325147385378417 -0.2975670103236083
  O   0.0322326418712158 -0.4712852234621582  0.2784329656763915
  O  -0.0210551530792815  0.3365811448800867  0.0019812792024139
  O  -0.0432106460718324 -0.0406816985374021  0.0843645157303951
  Al -0.1553873421287841  0.4115147575378418 -0.1731470223236082
  Al  0.3353726868712159  0.3247647285378417  0.3037430046763915
  Al -0.3944873211287842 -0.2908652424621583  0.1711329816763915
  Al -0.1958173211287843  0.2047147755378418  0.0264029766763917
  Al  0.3079726698712157  0.4417247475378417  0.4610329866763915
  Al -0.3981073351287840 -0.1462352274621583 -0.1880069973236083
  Al -0.3963873391287842  0.0114347335378417 -0.1871370073236083
  Al  0.4582526688712158 -0.2502052184621582  0.1680029626763914
  H  -0.0692624099086498  0.4711545262565235 -0.1835722410929155
  H   0.3507636069450468  0.2187103639780688  0.3020649699522392
  H  -0.3907174133923390 -0.3706177304785678  0.0759265680512973
  H  -0.1175839537292980  0.2277876220711501  0.1203956536003892
  H   0.2294280238535666  0.4657454873121681 -0.4501277288579710
  H  -0.3369152563805129 -0.0677862562851141 -0.2120818781840852
  H  -0.4711404748349630  0.0219766682370748 -0.2941736894147228
  H   0.4359781641915139 -0.3199794473863361  0.2753431314706349
  H   0.0898890284613136  0.3870066278132767 -0.0834111507269783
  H   0.1140240924455340  0.3285118456859720  0.0095639786184610
  H   0.1276173755872778  0.4152079917732459  0.0291471113416003
  H  -0.0127954277204871  0.4634026982212815 -0.0516026863439292
  H  -0.0570291384281356  0.4547435183818789  0.0619844814215540
  H   0.0226740579120855  0.4930069863465021  0.0617604934717704
  H  -0.0028808294815006  0.2922259494458593  0.0120457436134940
  H   0.0282533756273422  0.3752909952034765  0.1255575177793642
  H  -0.0379979405637112 -0.0252204397533160 -0.1160505704941063
  H   0.0183156692069468 -0.0896576501121533 -0.0817948398275277
  H   0.0491289504488430 -0.0114339257392355 -0.1235459750687873
  H  -0.0517304679455325  0.0784560200003793  0.0004598996751605
  H  -0.0050537675954540  0.0820742466410836  0.1124264318489221
  H   0.0351136315874041  0.0942570560471519 -0.0043174880130966
  H  -0.0362668015290706 -0.0886471244801739  0.0827969368503754
  H   0.0570440323675872 -0.0205639740419493  0.0630694091009366
  C   0.0239400694854216  0.3845067835305560  0.0445700060714041
  C   0.0928922525048620  0.3786409125614548 -0.0026974065243315
  C  -0.0075528280092558  0.4531902962784799  0.0283824313915836
  C   0.0087614858245253 -0.0093153760559917  0.0279147699045153
  C   0.0096887046401894 -0.0352554513414503 -0.0796730577404753
  C  -0.0037928503698952  0.0659883173730574  0.0343499680336883
