_cell_length_a 20.1071
_cell_length_b 19.8791
_cell_length_c 13.3691
_cell_angle_alpha 90.
_cell_angle_beta  90.
_cell_angle_gamma 90.
loop_
_atom_site_type_symbol
_atom_site_fract_x
_atom_site_fract_y
_atom_site_fract_z
  Si  0.4205600020000003  0.0554599990000000 -0.3198999759999999
  Si -0.4205600020000000 -0.0554599760000001  0.3198999759999996
  Si -0.0794399979999998  0.4445399939999999 -0.1801000240000001
  Si  0.0794399980000000 -0.4445400240000000  0.1801000239999999
  Si -0.1863200069999997  0.4690999980000000 -0.3364199999999999
  Si  0.2795999939999998  0.0624900010000000  0.0534599979999998
  Si -0.2796000240000001 -0.0624899860000000 -0.0534600020000000
  Si -0.2203999759999999  0.4375100139999999  0.4465399980000000
  Si  0.2204000060000000 -0.4375100139999998 -0.4465399980000000
  Si  0.1239499970000000  0.0623300000000000  0.0367400009999998
  Si -0.1239500049999999 -0.0623300080000000 -0.0367400049999999
  Si -0.3760499950000000  0.4376699920000000  0.4632599950000003
  Si  0.3760499950000002 -0.4376699920000001 -0.4632599950000000
  Si  0.0767799989999999  0.0280399989999999 -0.1759700179999998
  Si -0.0767800209999999 -0.0280399920000000  0.1759700179999999
  Si -0.4232199790000002  0.4719600079999999 -0.3240299820000001
  Si  0.4232200090000001 -0.4719600079999996  0.3240299820000001
  Si  0.1955599929999999  0.0558499989999999 -0.3133100270000000
  Si -0.3044400219999999  0.4441500010000001 -0.1866899729999998
  Si  0.4254199860000001 -0.1714800000000001 -0.3192999960000000
  Si -0.4254199860000001  0.1714800000000001  0.3192999960000000
  Si -0.0745800139999997 -0.3285199999999999 -0.1807000039999997
  Si  0.3122499880000000 -0.1265299920000000 -0.1738799809999999
  Si -0.3122500180000001  0.1265299919999999  0.1738799810000000
  Si -0.1877499820000001 -0.3734700080000000 -0.3261200189999998
  Si  0.1877500120000000  0.3734700080000000  0.3261200190000002
  Si -0.2732499840000000  0.1758999820000000 -0.0359699729999999
  Si -0.2267500159999999 -0.3241000180000000  0.4640299980000000
  Si  0.2267499860000000  0.3241000180000000 -0.4640300270000000
  Si  0.1189500019999999 -0.1763399839999999  0.0343599989999998
  Si -0.1189500089999997  0.1763399840000002 -0.0343599919999998
  Si -0.3810499910000003 -0.3236600160000001  0.4656400080000003
  Si  0.3810499910000000  0.3236600159999998 -0.4656400080000000
  Si  0.0715600030000000 -0.1293900009999997 -0.1751599910000001
  Si -0.0715600249999997  0.1293900009999999  0.1751599909999999
  Si -0.4284399750000001 -0.3706099990000000 -0.3248400089999999
  Si  0.4284400050000001  0.3706099990000000  0.3248400089999994
  Si  0.1907899980000002 -0.1652799839999999 -0.3140799999999999
  Si -0.1907899979999998  0.1652799839999998  0.3140799999999999
  Si -0.3092100020000002 -0.3347200160000000 -0.1859200000000000
  Si  0.3092100019999999  0.3347200159999999  0.1859199999999996
  Si  0.4283699989999999  0.4429700080000000 -0.3345599769999998
  Si -0.4283699990000001 -0.4429700369999999  0.3345599769999998
  Si -0.0716300009999997  0.0570299919999999 -0.1654400230000001
  Si  0.0716300010000000 -0.0570299630000000  0.1654400229999997
  Si  0.3123700020000000  0.4730499979999999 -0.1881399750000000
  Si -0.3123700020000000 -0.4730499980000000  0.1881399749999997
  Si -0.1876299979999997  0.0269500020000000 -0.3118600250000001
  Si  0.1876299979999998 -0.0269500020000000  0.3118600249999999
  Si  0.2770400050000000  0.4388900099999999  0.0293999999999999
  Si -0.2770400049999998 -0.4388899800000000 -0.0293999910000000
  Si  0.2229599950000001 -0.0611100199999998 -0.4706000090000000
  Si  0.1215500010000000  0.4356299940000001  0.0337999980000001
  Si -0.1215500239999998 -0.4356299640000000 -0.0338000059999999
  Si  0.3784500060000001 -0.0643700360000000 -0.4661999940000001
  Si -0.0709599849999997 -0.4731500149999999  0.1784399749999999
  Si -0.4290400150000000  0.0268499850000000 -0.3215600250000001
  Si  0.4290400150000001 -0.0268499849999999  0.3215600250000001
  Si  0.1873700020000000  0.4377799929999999 -0.3174300189999999
  Si -0.1873700019999999 -0.4377800230000000  0.3174300189999999
  Si -0.3126299980000000  0.0622200070000000 -0.1825699810000001
  Si  0.4238899950000002 -0.3279600140000000 -0.3141700030000001
  Si -0.4238899950000001  0.3279600139999999  0.3141700029999999
  Si -0.0761100049999997 -0.1720399860000001 -0.1858299969999999
  Si  0.0761100049999999  0.1720399860000001  0.1858299969999999
  Si -0.3127800230000002  0.3687000269999998  0.1683599949999999
  Si -0.1872199769999998 -0.1312999729999999 -0.3316400049999999
  Si  0.1872200069999999  0.1312999730000000  0.3316400049999999
  Si  0.2731199860000000 -0.3310800189999999  0.0460800010000000
  Si -0.2731199859999998  0.3310800189999998 -0.0460799929999999
  Si -0.2268800140000000 -0.1689199810000002  0.4539200070000000
  Si  0.2268800140000001  0.1689199810000002 -0.4539200070000000
  Si  0.1186700020000000 -0.3299300069999999  0.0386799979999999
  Si -0.1186699869999997  0.3299300070000000 -0.0386800169999998
  Si -0.3813300130000001 -0.1700699930000000  0.4613200129999997
  Si  0.3813300130000000  0.1700699930000000 -0.4613199829999999
  Si  0.4273200040000000  0.1308199760000002  0.3224300150000001
  Si -0.1944600339999999  0.3192999959999998  0.2978900069999997
  Si -0.3055399660000000 -0.1807000040000000 -0.2021099929999998
  Si  0.3055399950000002  0.1807000040000000  0.2021099929999999
  O   0.3779000040000003  0.0588000010000000 -0.2193999889999999
  O  -0.3779000040000000 -0.0587999820000000  0.2193999889999999
  O  -0.1220999959999997  0.4411999880000000 -0.2806000110000000
  O   0.1220999960000000 -0.4412000179999996  0.2806000110000000
  O   0.3106000130000002  0.0662000030000000 -0.0564000009999999
  O  -0.3106000420000001 -0.0662000180000000  0.0564000009999999
  O  -0.1893999580000000  0.4337999820000003 -0.4435999989999999
  O   0.1893999869999999 -0.4337999820000000  0.4435999989999999
  O   0.2018000040000001  0.0472000019999999  0.0465000010000001
  O  -0.2017999889999997 -0.0472000240000001 -0.0465000269999999
  O  -0.2982000109999999  0.4528000059999999  0.4535000030000000
  O   0.2982000110000000 -0.4527999760000000 -0.4534999730000000
  O   0.1032000040000000  0.0671000029999999 -0.0784000159999999
  O  -0.1032000179999998 -0.0670999880000000  0.0784000010000000
  O  -0.3967999820000001  0.4329000120000002 -0.4215999840000000
  O   0.3967999820000002 -0.4329000119999998  0.4215999840000000
  O   0.1230000029999999  0.0443000009999996 -0.2692999840000001
  O  -0.1230000259999999 -0.0443000200000001  0.2692999839999999
  O  -0.3769999740000003  0.4557000099999999 -0.2307000159999999
  O   0.3770000040000002 -0.4556999799999999  0.2307000159999999
  O   0.2483000009999998  0.0476999990000000 -0.2247999909999998
  O  -0.2483000159999998 -0.0476999880000000  0.2247999909999998
  O  -0.2516999839999998  0.4523000120000000 -0.2752000090000000
  O   0.2516999839999999 -0.4523000120000000  0.2752000089999997
  O   0.3768999870000002 -0.1532999870000000 -0.2289000150000000
  O  -0.3768999579999999  0.1532999870000000  0.2289000149999998
  O  -0.1231000419999999 -0.3467000129999999 -0.2710999850000000
  O   0.1231000130000000  0.3467000130000000  0.2710999849999998
  O   0.3050000070000001 -0.1668999790000000 -0.0724999900000000
  O  -0.3050000070000001  0.1668999790000001  0.0724999979999997
  O  -0.1949999929999999 -0.3331000209999999 -0.4275000100000002
  O   0.1949999930000001  0.3331000209999999  0.4275000100000002
  O   0.1959999950000002 -0.1557999850000000  0.0315999980000000
  O  -0.1959999800000000  0.1557999850000000 -0.0315999980000000
  O  -0.3040000200000001 -0.3442000150000000  0.4684000019999999
  O   0.3040000200000000  0.3442000150000002 -0.4684000020000001
  O   0.0885000010000000 -0.1689000130000000 -0.0752999780000002
  O  -0.0885000229999998  0.1689000130000000  0.0753000010000001
  O  -0.4114999770000003 -0.3310999870000000 -0.4247000220000001
  O   0.4115000069999999  0.3310999870000000  0.4246999919999999
  O   0.1208000030000001 -0.1510999800000000 -0.2630000110000001
  O  -0.1208000179999999  0.1510999800000001  0.2630000109999999
  O  -0.3791999820000000 -0.3489000200000000 -0.2369999889999998
  O   0.3791999820000002  0.3489000199999999  0.2369999889999997
  O   0.2483000009999998 -0.1376000050000001 -0.2423999909999998
  O  -0.2483000159999998  0.1376000049999999  0.2423999910000001
  O  -0.2516999839999998 -0.3623999949999999 -0.2576000089999999
  O   0.2516999839999999  0.3623999950000001  0.2576000089999999
  O   0.3188999890000003 -0.0485000010000000 -0.1489999889999998
  O  -0.3188999890000003  0.0485000009999999  0.1489999889999999
  O  -0.1811000109999999 -0.4514999989999999 -0.3510000110000000
  O   0.1811000109999998  0.4514999990000002  0.3510000110000000
  O   0.0781000030000000 -0.0508999820000001 -0.1528999809999998
  O  -0.0781000259999998  0.0509000009999999  0.1528999810000001
  O  -0.4218999740000001 -0.4491000179999999 -0.3471000189999998
  O   0.4219000040000002  0.4490999879999998  0.3471000189999998
  O   0.4144999979999997  0.1253000050000002 -0.3770999909999998
  O  -0.4144999980000001 -0.1252999900000001  0.3770999909999999
  O  -0.0855000019999999  0.3747000100000000 -0.1229000090000001
  O   0.0855000020000000 -0.3747000100000000  0.1229000089999997
  O   0.3923000099999998 -0.0041000249999999 -0.3891999719999999
  O  -0.3923000100000000  0.0040999999999998  0.3891999719999999
  O  -0.1076999899999997 -0.4958999750000000 -0.1108000280000000
  O   0.1076999899999999  0.4959000050000000  0.1108000279999999
  O   0.4022000129999999 -0.1340000030000000 -0.4186000229999998
  O  -0.4021999840000001  0.1340000030000001  0.4186000230000000
  O  -0.0978000159999997 -0.3659999969999999 -0.0813999770000000
  O   0.0977999869999999  0.3659999969999999  0.0813999770000000
  O   0.2002999930000000  0.1298000070000000 -0.3582999709999998
  O  -0.2002999779999999 -0.1298000220000000  0.3582999710000001
  O  -0.2997000219999998  0.3701999780000000 -0.1417000290000000
  O   0.2997000220000001 -0.3701999780000000  0.1417000289999999
  O   0.2099000070000002  0.0025999999999999 -0.4007999899999999
  O  -0.2099000220000000 -0.0026000139999998  0.4007999899999999
  O  -0.2900999779999998  0.4973999860000000 -0.0992000100000000
  O   0.2900999780000000 -0.4973999860000001  0.0992000100000000
  O   0.1948000040000002 -0.1274999979999999 -0.4187999960000000
  O  -0.1948000190000000  0.1274999980000000  0.4187999959999995
  O  -0.3051999809999999 -0.3725000019999998 -0.0812000039999999
  O   0.3051999810000000  0.3725000019999999  0.0812000040000000
  O   0.0032000000000001  0.0514999999999999 -0.2041000130000002
  O  -0.0031999950000000 -0.0515000220000001  0.2041000129999999
  O  -0.4968000049999999  0.4485000069999997 -0.2958999870000001
  O   0.4968000049999999 -0.4484999780000001  0.2958999869999999
  O  -0.0023000239999998 -0.1474999789999999 -0.2098000049999997
  O   0.0023000000000001  0.1474999790000000  0.2098000049999997
  O   0.4977000060000000 -0.3525000210000000 -0.2901999950000000
  O  -0.4976999759999999  0.3525000210000000  0.2901999949999998
  O   0.4239000080000003 -0.2501000170000000 -0.3413000109999997
  O  -0.4239000080000004  0.2501000169999997  0.3413000109999997
  O  -0.0760999919999998 -0.2498999830000000 -0.1586999889999998
  O   0.0760999919999999  0.2498999830000001  0.1586999889999998
  O   0.1986999960000000 -0.2434999940000000 -0.3356000190000001
  O  -0.1987000109999999  0.2434999940000001  0.3356000190000001
  O  -0.3012999889999998 -0.2565000060000000 -0.1643999809999998
  O   0.3012999890000001  0.2565000059999999  0.1643999809999998
  O   0.2822000090000001 -0.2524999980000000  0.0675999969999999
  O  -0.2821999789999997  0.2524999979999999 -0.0676000120000000
  O  -0.2178000209999999 -0.2475000020000000  0.4323999879999998
  O   0.2177999910000002  0.2475000019999999 -0.4323999880000000
  O   0.1101000009999999 -0.2526000140000000  0.0697000029999999
  O  -0.1101000309999997  0.2526000140000000 -0.0697000029999999
  O  -0.3898999690000000 -0.2473999860000000  0.4302999970000000
  O   0.3898999989999999  0.2473999859999999 -0.4302999969999999
  O   0.3799000079999999  0.4503000080000000 -0.2408000229999998
  O  -0.3798999790000002 -0.4502999780000001  0.2408000230000000
  O  -0.1201000209999997  0.0496999919999998 -0.2591999770000000
  O   0.1200999920000000 -0.0497000220000000  0.2591999770000000
  O   0.3143000010000003  0.4480000140000000 -0.0753999949999999
  O  -0.3143000010000001 -0.4480000139999999  0.0754000019999997
  O  -0.1856999989999999  0.0519999860000001 -0.4246000049999998
  O   0.1856999990000000 -0.0519999860000001  0.4246000049999998
  O   0.1991000030000001  0.4318000080000001  0.0093999999999997
  O  -0.1991000179999998 -0.4318000079999999 -0.0094000099999998
  O  -0.3008999819999997  0.0681999920000000  0.4905999900000000
  O   0.3008999820000000 -0.0681999920000001 -0.4905999900000000
  O   0.0812000039999999  0.4478000099999999 -0.0669000150000000
  O  -0.0812000039999998 -0.4478000400000000  0.0668999999999998
  O  -0.4187999960000000  0.0521999900000001 -0.4330999849999999
  O   0.4187999960000005 -0.0521999600000000  0.4330999849999999
  O   0.1206000000000000  0.4350999890000000 -0.2526999710000000
  O  -0.1205999849999999 -0.4350999589999999  0.2526999710000000
  O  -0.3794000150000001  0.0649000110000000 -0.2473000289999999
  O   0.3794000150000002 -0.0649000410000000  0.2473000290000000
  O   0.2504999940000002  0.4401000139999999 -0.2451000210000000
  O  -0.2504999639999999 -0.4401000140000000  0.2451000209999998
  O  -0.2495000359999998  0.0598999860000000 -0.2548999789999999
  O   0.2495000060000001 -0.0598999860000000  0.2548999789999999
  O   0.3797000050000000 -0.3410000210000000 -0.2168999910000000
  O  -0.3797000049999999  0.3410000210000002  0.2168999909999998
  O  -0.1202999949999997 -0.1589999790000000 -0.2831000090000000
  O   0.1202999950000000  0.1589999789999998  0.2831000090000000
  O   0.3147999940000000 -0.3540999889999998 -0.0508000249999999
  O  -0.3148000240000000  0.3540999889999998  0.0507999989999999
  O  -0.1851999759999998 -0.1459000110000002 -0.4491999750000000
  O   0.1852000060000000  0.1459000110000001  0.4492000039999999
  O   0.1960999970000001 -0.3486999870000000  0.0270000010000000
  O  -0.1960999970000000  0.3486999869999998 -0.0270000099999999
  O  -0.3039000029999999 -0.1513000130000000  0.4729999899999999
  O   0.3039000030000004  0.1513000130000001 -0.4729999900000001
  O   0.0821999980000000 -0.3440999980000000 -0.0652999880000000
  O  -0.0821999909999996  0.3440999979999999  0.0653000029999999
  O  -0.4178000090000000 -0.1559000020000000 -0.4347000120000000
  O   0.4178000090000001  0.1559000019999999  0.4347000120000002
  O   0.1231999989999999 -0.3321999910000000 -0.2504000070000001
  O  -0.1231999989999998  0.3321999909999999  0.2504000069999999
  O  -0.3768000010000001 -0.1678000090000000 -0.2495999930000000
  O   0.3768000010000001  0.1678000090000000  0.2495999929999997
  O   0.2496999950000001 -0.3306000230000000 -0.2143999929999997
  O  -0.2497000099999997  0.3306000229999999  0.2143999929999998
  O  -0.2502999899999998 -0.1693999770000000 -0.2856000070000000
  O   0.2502999899999998  0.1693999769999998  0.2856000070000000
  O   0.3054000140000004 -0.4470000269999999 -0.1912999749999999
  O  -0.3054000140000002  0.4470000269999997  0.1912999749999997
  O  -0.1945999860000001 -0.0529999730000002 -0.3087000249999998
  O   0.1945999859999998  0.0529999729999999  0.3087000250000000
  O   0.0851000030000000 -0.4480999710000000 -0.1833999750000001
  O  -0.0850999949999995  0.4480999709999999  0.1833999749999999
  O  -0.4149000050000000 -0.0519000290000000 -0.3166000250000001
  O   0.4149000050000000  0.0519000290000000  0.3166000250000003
  O   0.4185999929999999  0.3713999989999999 -0.3884999749999998
  O  -0.4185999630000001 -0.3713999989999999  0.3884999750000000
  O  -0.0814000369999998  0.1286000010000001 -0.1115000250000000
  O   0.0814000070000000 -0.1286000010000000  0.1115000249999999
  O   0.4153999980000000 -0.4984999900000001 -0.4135000110000000
  O  -0.4154000280000001  0.4984999900000000  0.4135000110000000
  O  -0.0845999719999997 -0.0015000100000001 -0.0864999889999999
  O   0.0846000019999999  0.0015000100000001  0.0864999889999999
  O   0.3937999900000000 -0.3679999709999999 -0.4086999890000000
  O  -0.3938000200000000  0.3679999710000001  0.4086999889999998
  O  -0.1061999799999996 -0.1320000289999999 -0.0913000109999998
  O   0.1062000100000002  0.1320000289999998  0.0913000110000001
  O   0.1899999980000000  0.3711000080000000 -0.3847000000000000
  O  -0.1899999979999999 -0.3711000080000000  0.3846999999999998
  O  -0.3100000019999998  0.1288999920000000 -0.1152999999999999
  O   0.3100000020000001 -0.1288999920000000  0.1152999999999998
  O   0.1861999929999998 -0.4968000049999999 -0.3863000269999999
  O  -0.1862000229999998  0.4968000049999998  0.3863000270000001
  O  -0.3137999770000000 -0.0031999950000001 -0.1136999730000001
  O   0.3138000070000001  0.0031999949999998  0.1136999730000001
  O   0.2073999940000000 -0.3673999909999999 -0.3913999799999999
  O  -0.2073999639999999  0.3673999909999999  0.3913999799999999
  O  -0.2926000360000000 -0.1326000090000000 -0.1086000200000001
  O   0.2926000060000001  0.1326000089999999  0.1086000199999997
  O  -0.0038999919999998  0.4575999980000000 -0.2103999849999997
  O   0.0039000000000000 -0.4575999980000001  0.2103999850000000
  O   0.4961000080000000  0.0424000019999999 -0.2896000149999998
  O  -0.4961000079999998 -0.0424000020000000  0.2896000150000002
  O  -0.0012999769999998 -0.3518999810000000 -0.2120000119999998
  O   0.0013000000000000  0.3518999809999999  0.2120000119999998
  O   0.4986999929999999 -0.1481000190000001 -0.2879999880000002
  O  -0.4987000230000000  0.1481000190000001  0.2879999880000002
  Al  0.3136799930000003  0.0309000000000000 -0.1635800000000000
  Al -0.3136799930000000 -0.0309000020000000  0.1635800000000001
  Al  0.1863200070000001 -0.4690999979999998  0.3364199999999995
  Al -0.1955599780000001 -0.0558500290000000  0.3133100270000000
  Al  0.3044400220000001 -0.4441499709999998  0.1866899730000000
  Al  0.0745800139999999  0.3285200000000001  0.1807000040000000
  Al  0.2732500139999998 -0.1758999820000000  0.0359699990000000
  Al -0.2229599949999998  0.0611099899999998  0.4706000089999998
  Al -0.3784499760000000  0.0643700059999999  0.4661999939999999
  Al  0.0709600000000000  0.4731500149999998 -0.1784399749999998
  Al  0.3126299980000001 -0.0622199770000000  0.1825699809999999
  Al  0.3127799930000000 -0.3687000270000000 -0.1683599950000001
  Al  0.0726799960000001 -0.3691800240000001 -0.1775699849999998
  Al -0.0726799959999996  0.3691800239999998  0.1775699849999999
  Al -0.4273200040000003 -0.1308199759999999 -0.3224300150000001
  Al  0.1944600050000002 -0.3192999960000000 -0.2978900069999999
  H   0.3389679943358641 -0.0508162078187706 -0.0822869518562501
  H  -0.3391605411210092 -0.1061048807503124  0.0591414790876525
  H   0.1608395066861075 -0.3938951055079578  0.4408585199682857
  H  -0.2138703827235141 -0.0350434718191287  0.4556683987513639
  H   0.4073366609955830 -0.4502752892022184  0.1738965652187210
  H   0.0972482340192689  0.3325330419332897  0.0275821485905836
  H   0.1957590283699970 -0.1068419351490319  0.0230106518456967
  H  -0.1408290374925418  0.0702506193315343 -0.4336909774572155
  H  -0.3464216185937541  0.0018394081058263  0.3646846467876528
  H   0.0375115265505393  0.4286763372641528 -0.0511716559777028
  H   0.3612365705859616  0.0114212090534931  0.1021257899487876
  H   0.4059842930903991 -0.3240476556604081 -0.1605501212465182
  H   0.0949545269102005 -0.2994057796756188 -0.2849101700002610
  H  -0.0949545006797019  0.2994057950758224  0.2849101537942442
  H  -0.4050454993202981 -0.2005942049241779 -0.2150898462057562
  H   0.2130445449273786 -0.2463571096040264 -0.4055283191531675
