_cell_length_a 20.1071
_cell_length_b 19.8791
_cell_length_c 13.3691
_cell_angle_alpha 90.
_cell_angle_beta  90.
_cell_angle_gamma 90.
loop_
_atom_site_type_symbol
_atom_site_fract_x
_atom_site_fract_y
_atom_site_fract_z
  Si  0.4205600019999999  0.0554599990000000 -0.3198999760000001
  Si -0.4205600019999999 -0.0554599760000000  0.3198999759999999
  Si -0.0794399980000000  0.4445399939999998 -0.1801000239999999
  Si  0.0794399980000000 -0.4445400240000000  0.1801000240000001
  Si -0.3136799930000000 -0.0309000019999999  0.1635800000000001
  Si -0.1863200070000000  0.4690999980000001 -0.3364200000000002
  Si  0.1863200070000000 -0.4690999979999999  0.3364199999999999
  Si  0.2795999939999999  0.0624900010000001  0.0534599979999999
  Si -0.2796000240000001 -0.0624899860000000 -0.0534600020000000
  Si -0.2203999760000000  0.4375100139999999  0.4465399980000000
  Si  0.2204000060000000 -0.4375100140000001 -0.4465399980000000
  Si  0.1239499970000000  0.0623300000000000  0.0367400009999999
  Si -0.1239500049999999 -0.0623300080000000 -0.0367400049999999
  Si -0.3760499949999999  0.4376699920000000  0.4632599950000000
  Si  0.3760499949999999 -0.4376699920000000 -0.4632599950000000
  Si  0.0767799990000000  0.0280399990000000 -0.1759700179999999
  Si -0.0767800210000000 -0.0280399920000000  0.1759700179999998
  Si -0.4232199790000000  0.4719600080000000 -0.3240299820000001
  Si  0.4232200089999999 -0.4719600079999999  0.3240299819999999
  Si  0.1955599929999998  0.0558499989999999 -0.3133100270000000
  Si -0.3044400220000001  0.4441500010000001 -0.1866899730000000
  Si  0.3044400219999999 -0.4441499709999999  0.1866899730000000
  Si  0.4254199860000000 -0.1714800000000000 -0.3192999960000000
  Si -0.4254199860000000  0.1714800000000001  0.3192999960000000
  Si -0.0745800140000000 -0.3285199999999999 -0.1807000040000000
  Si  0.0745800140000000  0.3285200000000001  0.1807000039999999
  Si  0.3122499879999999 -0.1265299920000000 -0.1738799810000000
  Si -0.3122500180000001  0.1265299920000000  0.1738799810000000
  Si -0.1877499820000001 -0.3734700080000000 -0.3261200190000000
  Si  0.1877500119999999  0.3734700079999999  0.3261200190000000
  Si  0.2732500140000000 -0.1758999820000000  0.0359699990000000
  Si -0.2732499840000000  0.1758999820000000 -0.0359699730000000
  Si -0.2267500160000000 -0.3241000180000000  0.4640299980000000
  Si  0.2267499859999999  0.3241000180000000 -0.4640300269999999
  Si  0.1189500020000000 -0.1763399839999999  0.0343599989999999
  Si -0.1189500089999999  0.1763399840000002 -0.0343599919999999
  Si -0.3810499910000000 -0.3236600160000001  0.4656400080000000
  Si  0.3810499909999999  0.3236600159999998 -0.4656400080000000
  Si  0.0715600030000000 -0.1293900010000000 -0.1751599909999999
  Si -0.0715600250000000  0.1293900010000000  0.1751599909999998
  Si -0.4284399750000000 -0.3706099990000000 -0.3248400090000001
  Si  0.4284400050000000  0.3706099990000000  0.3248400089999999
  Si  0.1907899979999999 -0.1652799840000000 -0.3140800000000001
  Si -0.1907899979999999  0.1652799839999999  0.3140800000000001
  Si -0.3092100020000002 -0.3347200160000000 -0.1859200000000001
  Si  0.3092100019999999  0.3347200159999999  0.1859199999999998
  Si  0.4283699989999999  0.4429700080000001 -0.3345599770000001
  Si -0.4283699989999999 -0.4429700370000000  0.3345599770000001
  Si -0.0716300010000001  0.0570299919999999 -0.1654400230000002
  Si  0.0716300010000001 -0.0570299630000000  0.1654400229999999
  Si  0.3123700019999999  0.4730499980000000 -0.1881399750000001
  Si -0.3123700020000000 -0.4730499980000000  0.1881399749999998
  Si -0.1876299980000000  0.0269500020000000 -0.3118600250000001
  Si  0.1876299979999999 -0.0269500020000000  0.3118600249999999
  Si  0.2770400049999999  0.4388900099999999  0.0293999999999999
  Si -0.2770400050000001 -0.4388899800000000 -0.0293999909999999
  Si  0.2229599949999999 -0.0611100200000000 -0.4706000089999999
  Si  0.1215500010000000  0.4356299940000001  0.0337999980000001
  Si -0.1215500239999999 -0.4356299639999999 -0.0338000059999999
  Si -0.3784499760000000  0.0643700059999999  0.4661999940000001
  Si  0.3784500059999999 -0.0643700360000000 -0.4661999940000000
  Si -0.0709599849999999 -0.4731500149999999  0.1784399749999998
  Si -0.4290400149999999  0.0268499850000001 -0.3215600250000001
  Si  0.4290400150000000 -0.0268499850000000  0.3215600249999999
  Si  0.1873700019999999  0.4377799929999999 -0.3174300190000001
  Si -0.1873700020000000 -0.4377800230000000  0.3174300189999999
  Si -0.3126299980000000  0.0622200070000001 -0.1825699809999999
  Si  0.3126299980000000 -0.0622199770000000  0.1825699809999998
  Si  0.4238899950000000 -0.3279600140000000 -0.3141700030000000
  Si -0.4238899950000000  0.3279600139999999  0.3141700029999999
  Si -0.0761100050000000 -0.1720399860000000 -0.1858299969999999
  Si  0.0761100050000000  0.1720399860000001  0.1858299969999999
  Si  0.3127799929999999 -0.3687000270000000 -0.1683599949999999
  Si -0.3127800230000000  0.3687000269999998  0.1683599949999998
  Si -0.1872199770000000 -0.1312999730000000 -0.3316400050000001
  Si  0.1872200069999999  0.1312999730000000  0.3316400049999999
  Si  0.2731199860000000 -0.3310800189999998  0.0460800010000000
  Si -0.2731199860000000  0.3310800189999998 -0.0460799930000000
  Si -0.2268800140000000 -0.1689199810000001  0.4539200070000000
  Si  0.2268800139999999  0.1689199810000002 -0.4539200070000000
  Si  0.1186700019999999 -0.3299300070000000  0.0386799979999999
  Si -0.1186699870000000  0.3299300069999999 -0.0386800169999999
  Si -0.3813300130000000 -0.1700699930000000  0.4613200130000000
  Si  0.3813300130000000  0.1700699930000000 -0.4613199829999998
  Si  0.0726799959999999 -0.3691800240000001 -0.1775699849999999
  Si -0.0726799959999999  0.3691800239999997  0.1775699849999998
  Si -0.4273200039999999 -0.1308199759999999 -0.3224300150000001
  Si  0.4273200039999999  0.1308199760000002  0.3224300149999999
  Si  0.1944600050000000 -0.3192999960000000 -0.2978900070000001
  Si -0.1944600340000000  0.3192999959999998  0.2978900069999999
  Si -0.3055399660000000 -0.1807000040000000 -0.2021099929999999
  Si  0.3055399950000001  0.1807000040000000  0.2021099930000000
  O   0.3779000040000000  0.0588000010000000 -0.2193999890000000
  O  -0.3779000039999999 -0.0587999820000000  0.2193999890000000
  O  -0.1220999959999999  0.4411999880000002 -0.2806000110000000
  O   0.1220999959999999 -0.4412000180000000  0.2806000109999999
  O   0.3106000129999998  0.0662000030000001 -0.0564000009999999
  O  -0.3106000420000000 -0.0662000180000000  0.0564000009999999
  O  -0.1893999580000001  0.4337999820000000 -0.4435999989999999
  O   0.1893999869999999 -0.4337999820000000  0.4435999990000001
  O   0.2018000040000000  0.0472000019999999  0.0465000010000001
  O  -0.2017999889999999 -0.0472000240000001 -0.0465000269999999
  O  -0.2982000110000000  0.4528000060000000  0.4535000030000000
  O   0.2982000109999999 -0.4527999760000001 -0.4534999730000000
  O   0.1032000039999999  0.0671000030000000 -0.0784000159999999
  O  -0.1032000180000000 -0.0670999880000001  0.0784000009999998
  O  -0.3967999820000000  0.4329000120000002 -0.4215999840000000
  O   0.3967999820000001 -0.4329000119999999  0.4215999840000000
  O   0.1230000030000000  0.0443000009999999 -0.2692999840000001
  O  -0.1230000260000000 -0.0443000200000001  0.2692999839999999
  O  -0.3769999740000001  0.4557000100000000 -0.2307000159999999
  O   0.3770000040000000 -0.4556999799999999  0.2307000160000001
  O   0.2483000009999999  0.0476999990000000 -0.2247999910000000
  O  -0.2483000159999999 -0.0476999880000000  0.2247999910000000
  O  -0.2516999840000000  0.4523000120000000 -0.2752000090000000
  O   0.2516999840000000 -0.4523000120000000  0.2752000089999999
  O   0.3768999869999999 -0.1532999870000000 -0.2289000150000000
  O  -0.3768999579999999  0.1532999870000000  0.2289000150000000
  O  -0.1231000420000000 -0.3467000130000000 -0.2710999850000000
  O   0.1231000129999999  0.3467000129999999  0.2710999849999999
  O   0.3050000070000000 -0.1668999790000000 -0.0724999899999999
  O  -0.3050000070000000  0.1668999790000001  0.0724999979999998
  O  -0.1949999930000001 -0.3331000210000000 -0.4275000100000000
  O   0.1949999930000000  0.3331000209999999  0.4275000100000000
  O   0.1959999949999999 -0.1557999850000000  0.0315999979999999
  O  -0.1959999800000001  0.1557999850000000 -0.0315999980000000
  O  -0.3040000200000001 -0.3442000150000000  0.4684000020000001
  O   0.3040000199999998  0.3442000150000002 -0.4684000020000001
  O   0.0885000010000000 -0.1689000130000000 -0.0752999779999999
  O  -0.0885000230000000  0.1689000130000000  0.0753000010000000
  O  -0.4114999770000000 -0.3310999870000000 -0.4247000220000001
  O   0.4115000070000000  0.3310999870000000  0.4246999920000001
  O   0.1208000029999999 -0.1510999800000000 -0.2630000110000001
  O  -0.1208000179999999  0.1510999800000001  0.2630000109999999
  O  -0.3791999819999999 -0.3489000200000000 -0.2369999890000001
  O   0.3791999820000000  0.3489000199999999  0.2369999889999998
  O   0.2483000009999999 -0.1376000050000000 -0.2423999910000001
  O  -0.2483000159999999  0.1376000049999999  0.2423999910000000
  O  -0.2516999840000000 -0.3623999950000000 -0.2576000090000001
  O   0.2516999840000000  0.3623999950000001  0.2576000089999999
  O   0.3188999890000002 -0.0485000010000000 -0.1489999890000000
  O  -0.3188999890000002  0.0485000009999999  0.1489999889999999
  O  -0.1811000110000000 -0.4514999989999999 -0.3510000110000000
  O   0.1811000110000000  0.4514999990000000  0.3510000110000000
  O   0.0781000029999999 -0.0508999820000000 -0.1528999810000000
  O  -0.0781000259999999  0.0509000010000000  0.1528999810000000
  O  -0.4218999740000000 -0.4491000180000000 -0.3471000190000000
  O   0.4219000040000001  0.4490999880000000  0.3471000190000000
  O   0.4144999980000001  0.1253000050000002 -0.3770999910000001
  O  -0.4144999980000001 -0.1252999900000000  0.3770999910000001
  O  -0.0855000020000000  0.3747000100000000 -0.1229000090000001
  O   0.0855000020000000 -0.3747000100000000  0.1229000089999998
  O   0.3923000100000000 -0.0041000250000000 -0.3891999720000000
  O  -0.3923000100000000  0.0041000000000000  0.3891999720000001
  O  -0.1076999899999999 -0.4958999750000002 -0.1108000279999999
  O   0.1076999900000000  0.4959000050000000  0.1108000279999999
  O   0.4022000130000000 -0.1340000030000000 -0.4186000230000000
  O  -0.4021999840000000  0.1340000030000002  0.4186000230000000
  O  -0.0978000160000000 -0.3659999970000000 -0.0813999770000000
  O   0.0977999870000000  0.3659999969999998  0.0813999770000001
  O   0.2002999930000000  0.1298000070000001 -0.3582999710000001
  O  -0.2002999780000001 -0.1298000220000000  0.3582999710000001
  O  -0.2997000220000000  0.3701999780000000 -0.1417000290000001
  O   0.2997000219999998 -0.3701999780000000  0.1417000289999998
  O   0.2099000070000000  0.0026000000000000 -0.4007999900000000
  O  -0.2099000220000000 -0.0026000140000000  0.4007999900000001
  O  -0.2900999780000000  0.4973999860000000 -0.0992000100000001
  O   0.2900999779999999 -0.4973999860000000  0.0992000099999999
  O   0.1948000039999999 -0.1274999980000000 -0.4187999960000000
  O  -0.1948000190000000  0.1274999980000000  0.4187999960000000
  O  -0.3051999810000001 -0.3725000020000000 -0.0812000040000000
  O   0.3051999809999999  0.3725000020000000  0.0812000040000000
  O   0.0032000000000000  0.0514999999999999 -0.2041000129999999
  O  -0.0031999950000000 -0.0515000220000000  0.2041000130000001
  O  -0.4968000049999998  0.4485000069999998 -0.2958999870000001
  O   0.4968000050000001 -0.4484999779999999  0.2958999869999999
  O  -0.0023000239999999 -0.1474999790000000 -0.2098000050000000
  O   0.0023000000000000  0.1474999790000000  0.2098000049999999
  O   0.4977000060000000 -0.3525000210000000 -0.2901999950000000
  O  -0.4976999759999999  0.3525000210000000  0.2901999950000000
  O   0.4239000080000001 -0.2501000170000000 -0.3413000110000000
  O  -0.4239000080000001  0.2501000169999998  0.3413000110000000
  O  -0.0760999919999999 -0.2498999830000000 -0.1586999890000000
  O   0.0760999919999999  0.2498999830000002  0.1586999890000000
  O   0.1986999959999999 -0.2434999940000000 -0.3356000190000001
  O  -0.1987000110000001  0.2434999940000000  0.3356000189999999
  O  -0.3012999890000001 -0.2565000060000000 -0.1643999809999999
  O   0.3012999889999999  0.2565000060000000  0.1643999809999998
  O   0.2822000089999998 -0.2524999980000000  0.0675999969999999
  O  -0.2821999790000000  0.2524999980000000 -0.0676000119999999
  O  -0.2178000209999999 -0.2475000020000000  0.4323999880000000
  O   0.2177999910000000  0.2475000020000000 -0.4323999880000000
  O   0.1101000010000000 -0.2526000140000000  0.0697000030000000
  O  -0.1101000309999999  0.2526000140000000 -0.0697000029999999
  O  -0.3898999690000000 -0.2473999860000000  0.4302999970000001
  O   0.3898999990000001  0.2473999860000000 -0.4302999969999999
  O   0.3799000080000001  0.4503000080000001 -0.2408000230000000
  O  -0.3798999790000001 -0.4502999780000001  0.2408000230000000
  O  -0.1201000210000000  0.0496999919999999 -0.2591999770000000
  O   0.1200999919999999 -0.0497000220000000  0.2591999769999999
  O   0.3143000010000000  0.4480000140000000 -0.0753999950000000
  O  -0.3143000010000000 -0.4480000140000000  0.0754000019999998
  O  -0.1856999990000001  0.0519999860000001 -0.4246000049999998
  O   0.1856999989999999 -0.0519999860000000  0.4246000050000001
  O   0.1991000029999999  0.4318000080000000  0.0093999999999999
  O  -0.1991000180000000 -0.4318000080000000 -0.0094000100000000
  O  -0.3008999820000000  0.0681999920000000  0.4905999900000000
  O   0.3008999820000000 -0.0681999920000000 -0.4905999899999999
  O   0.0812000040000000  0.4478000099999999 -0.0669000150000000
  O  -0.0812000040000000 -0.4478000400000000  0.0669000000000000
  O  -0.4187999960000000  0.0521999900000001 -0.4330999849999999
  O   0.4187999960000000 -0.0521999600000000  0.4330999850000001
  O   0.1205999999999999  0.4350999890000000 -0.2526999710000000
  O  -0.1205999850000000 -0.4350999590000000  0.2526999709999999
  O  -0.3794000150000000  0.0649000110000000 -0.2473000290000000
  O   0.3794000150000000 -0.0649000410000000  0.2473000290000000
  O   0.2504999940000000  0.4401000140000000 -0.2451000210000001
  O  -0.2504999640000001 -0.4401000140000000  0.2451000210000001
  O  -0.2495000360000000  0.0598999860000000 -0.2548999790000002
  O   0.2495000060000000 -0.0598999860000000  0.2548999789999999
  O   0.3797000050000000 -0.3410000210000000 -0.2168999910000000
  O  -0.3797000050000000  0.3410000210000002  0.2168999910000000
  O  -0.1202999950000000 -0.1589999790000000 -0.2831000090000000
  O   0.1202999950000000  0.1589999789999998  0.2831000089999999
  O   0.3147999939999999 -0.3540999889999998 -0.0508000250000000
  O  -0.3148000240000000  0.3540999889999998  0.0507999989999999
  O  -0.1851999760000000 -0.1459000110000001 -0.4491999750000000
  O   0.1852000059999999  0.1459000110000002  0.4492000040000000
  O   0.1960999969999999 -0.3486999870000000  0.0270000010000000
  O  -0.1960999970000001  0.3486999869999998 -0.0270000099999999
  O  -0.3039000030000001 -0.1513000130000000  0.4729999899999999
  O   0.3039000030000000  0.1513000130000002 -0.4729999900000001
  O   0.0821999979999999 -0.3440999979999999 -0.0652999880000000
  O  -0.0821999909999999  0.3440999979999999  0.0653000030000000
  O  -0.4178000090000000 -0.1559000020000000 -0.4347000120000000
  O   0.4178000089999999  0.1559000019999999  0.4347000120000000
  O   0.1231999989999999 -0.3321999910000000 -0.2504000070000001
  O  -0.1231999990000000  0.3321999910000000  0.2504000070000000
  O  -0.3768000009999999 -0.1678000090000000 -0.2495999930000001
  O   0.3768000009999998  0.1678000090000000  0.2495999929999999
  O   0.2496999949999999 -0.3306000230000000 -0.2143999930000000
  O  -0.2497000099999999  0.3306000230000001  0.2143999930000000
  O  -0.2502999900000000 -0.1693999770000000 -0.2856000070000000
  O   0.2502999900000000  0.1693999769999999  0.2856000070000000
  O   0.3054000140000001 -0.4470000270000000 -0.1912999750000000
  O  -0.3054000140000001  0.4470000269999999  0.1912999750000000
  O  -0.1945999859999999 -0.0529999730000001 -0.3087000250000000
  O   0.1945999859999999  0.0529999729999999  0.3087000250000000
  O   0.0851000029999999 -0.4480999710000000 -0.1833999749999999
  O  -0.0850999949999999  0.4480999710000000  0.1833999749999999
  O  -0.4149000050000000 -0.0519000290000000 -0.3166000250000001
  O   0.4149000050000000  0.0519000290000001  0.3166000250000001
  O   0.4185999930000001  0.3713999989999999 -0.3884999750000000
  O  -0.4185999630000000 -0.3713999990000000  0.3884999750000000
  O  -0.0814000370000000  0.1286000010000001 -0.1115000250000000
  O   0.0814000069999999 -0.1286000010000001  0.1115000249999999
  O   0.4153999979999998 -0.4984999900000000 -0.4135000110000000
  O  -0.4154000280000000  0.4984999900000000  0.4135000110000000
  O  -0.0845999720000000 -0.0015000100000000 -0.0864999890000000
  O   0.0846000020000000  0.0015000100000001  0.0864999889999999
  O   0.3937999899999999 -0.3679999710000000 -0.4086999890000000
  O  -0.3938000199999999  0.3679999710000001  0.4086999890000000
  O  -0.1061999799999999 -0.1320000289999999 -0.0913000110000000
  O   0.1062000100000000  0.1320000289999999  0.0913000109999999
  O   0.1899999979999999  0.3711000080000000 -0.3847000000000000
  O  -0.1899999980000000 -0.3711000080000000  0.3847000000000000
  O  -0.3100000020000000  0.1288999920000000 -0.1153000000000000
  O   0.3100000020000000 -0.1288999920000000  0.1152999999999999
  O   0.1861999929999999 -0.4968000049999999 -0.3863000270000001
  O  -0.1862000230000000  0.4968000050000000  0.3863000270000001
  O  -0.3137999770000000 -0.0031999950000000 -0.1136999729999999
  O   0.3138000070000000  0.0031999949999999  0.1136999730000002
  O   0.2073999939999999 -0.3673999910000000 -0.3913999800000000
  O  -0.2073999640000001  0.3673999909999999  0.3913999800000001
  O  -0.2926000360000000 -0.1326000090000001 -0.1086000200000001
  O   0.2926000060000000  0.1326000089999999  0.1086000200000000
  O  -0.0038999919999999  0.4575999980000001 -0.2103999850000000
  O   0.0039000000000000 -0.4575999979999998  0.2103999850000000
  O   0.4961000080000000  0.0424000020000000 -0.2896000150000000
  O  -0.4961000079999999 -0.0424000020000000  0.2896000149999999
  O  -0.0012999769999999 -0.3518999809999999 -0.2120000119999998
  O   0.0013000000000000  0.3518999809999998  0.2120000119999998
  O   0.4986999930000001 -0.1481000190000000 -0.2879999880000002
  O  -0.4987000229999999  0.1481000190000001  0.2879999879999999
  Al  0.3136799929999999  0.0308999999999999 -0.1635799999999998
  Al -0.1955599780000001 -0.0558500290000000  0.3133100270000000
  Al -0.2229599949999999  0.0611099899999998  0.4706000090000000
  Al  0.0709600000000000  0.4731500149999999 -0.1784399749999999
  H   0.3389679943358638 -0.0508162078187705 -0.0822869518562501
  H  -0.0926633901704436 -0.0497247131914210  0.3261034598457470
  H  -0.1718103929731212  0.1547353989107174  0.4691773411552509
  H  -0.0031008736474806  0.4546738595876861 -0.2835647808033465
