_cell_length_a 20.1071
_cell_length_b 19.8791
_cell_length_c 13.3691
_cell_angle_alpha 90.
_cell_angle_beta  90.
_cell_angle_gamma 90.
loop_
_atom_site_type_symbol
_atom_site_fract_x
_atom_site_fract_y
_atom_site_fract_z
  Si  0.4285870787211914 -0.0447077523122559  0.1569154861124269
  Si -0.4125329252788085 -0.1556277273122559 -0.2032845618875731
  Si -0.0714129212788086  0.3443722426877442  0.2967154381124268
  Si  0.0874670747211914  0.4552922246877440 -0.3430845138875731
  Si -0.3056529162788084 -0.1310677533122560 -0.3596045378875732
  Si -0.1782929302788083  0.3689322466877443  0.1403954621124268
  Si  0.1943470837211911  0.4307322506877440 -0.1867645378875733
  Si  0.2876270707211914 -0.0376777503122558 -0.4697245398875733
  Si -0.2715729472788087 -0.1626577373122560  0.4233554601124267
  Si -0.2123728992788087  0.3373422626877443 -0.0766445398875732
  Si  0.2284270827211914  0.4623222346877438  0.0302754641124268
  Si  0.1319770737211914 -0.0378377513122559 -0.4864445368875732
  Si -0.1159229282788083 -0.1624977593122559  0.4400754571124267
  Si -0.3680229182788084  0.3375022406877441 -0.0599245428875732
  Si  0.3840770717211912  0.4621622566877441  0.0135554671124265
  Si  0.0848070757211912 -0.0721277523122561  0.3008454441124268
  Si -0.0687529442788086 -0.1282077433122560 -0.3472145198875733
  Si -0.4151929022788086  0.3717922566877440  0.1527854801124271
  Si  0.4312470857211914  0.4278722406877440 -0.1991545558875731
  Si  0.2035870697211914 -0.0443177523122560  0.1635054351124270
  Si -0.2964129452788084  0.3439822496877442  0.2901254891124267
  Si  0.3124670987211914  0.4556822776877441 -0.3364945648875732
  Si  0.4334470627211915 -0.2716477513122559  0.1575154661124267
  Si -0.4173929092788082  0.0713122486877442 -0.2038845418875732
  Si -0.0665529372788087 -0.4286877513122560  0.2961154581124268
  Si  0.3202770647211914 -0.2266977433122559  0.3029354811124269
  Si -0.3042229412788084  0.0263622406877442 -0.3493045568875734
  Si -0.1797229052788085 -0.4736377593122558  0.1506954431124270
  Si  0.1957770887211913  0.2733022566877441 -0.1970645188875732
  Si -0.2652229072788084  0.0757322306877442  0.4408454891124267
  Si -0.2187229392788086 -0.4242677693122560 -0.0591545398875732
  Si  0.2347770627211911  0.2239322666877441  0.0127854351124268
  Si  0.1269770787211915 -0.2765077353122558 -0.4888245388875733
  Si -0.1109229322788086  0.0761722326877441  0.4424554701124268
  Si -0.3730229142788086 -0.4238277673122560 -0.0575445298875732
  Si  0.3890770677211916  0.2234922646877442  0.0111754541124265
  Si  0.0795870797211913 -0.2295577523122558  0.3016554711124268
  Si -0.0635329482788087  0.0292222496877441 -0.3480245468875731
  Si -0.4204128982788082 -0.4707777503122559  0.1519754531124269
  Si  0.4364670817211913  0.2704422476877442 -0.1983445288875731
  Si  0.1988170747211910 -0.2654477353122559  0.1627354621124271
  Si -0.1827629212788086  0.0651122326877442 -0.2091045378875731
  Si -0.3011829252788085 -0.4348877673122560  0.2908954621124268
  Si  0.3172370787211913  0.2345522646877443 -0.3372645378875733
  Si  0.4363970757211915  0.3428022566877442  0.1422554851124271
  Si -0.4203429222788084  0.4568622116877441 -0.1886245608875732
  Si -0.0636029242788088 -0.0431377593122559  0.3113754391124268
  Si  0.0796570777211913 -0.1571977143122558 -0.3577445148875733
  Si  0.3203970787211913  0.3728822466877442  0.2886754871124268
  Si -0.3043429252788083  0.4267822506877441 -0.3350445628875733
  Si -0.1796029212788084 -0.0732177493122559  0.1649554371124271
  Si  0.1956570747211912 -0.1271177533122559 -0.2113245128875734
  Si  0.2850670817211913  0.3387222586877441 -0.4937845378875734
  Si -0.2690129282788087  0.4609422686877440  0.4474154711124267
  Si  0.2309870717211910 -0.1612777713122560  0.0062154531124268
  Si  0.1295770777211915  0.3354622426877443 -0.4893845398875731
  Si -0.1135229472788086  0.4642022846877440  0.4430154561124266
  Si -0.3704228992788083 -0.0357977453122560 -0.0569845438875733
  Si  0.3864770827211914 -0.1645377873122560  0.0106154681124269
  Si -0.0629329082788084  0.4266822336877441 -0.3447445628875733
  Si -0.4210129382788085 -0.0733177663122559  0.1552554371124270
  Si  0.4370670917211914 -0.1270177363122560 -0.2016245128875731
  Si  0.1953970787211911  0.3376122416877443  0.1593854431124268
  Si -0.1793429252788085  0.4620522256877440 -0.2057545188875731
  Si -0.3046029212788086 -0.0379477443122562  0.2942454811124268
  Si  0.3206570747211914 -0.1623877283122560 -0.3406145568875734
  Si  0.4319170717211915 -0.4281277653122559  0.1626454591124269
  Si -0.4158629182788082  0.2277922626877442 -0.2090145348875733
  Si -0.0680829282788087 -0.2722077373122559  0.2909854651124266
  Si  0.0841370817211913  0.0718722346877441 -0.3373545408875733
  Si  0.3208070697211913 -0.4688677783122560  0.3084554671124271
  Si -0.3047529462788086  0.2685322756877442 -0.3548245428875734
  Si -0.1791929002788086 -0.2314677243122558  0.1451754571124268
  Si  0.1952470837211912  0.0311322216877443 -0.1915445328875731
  Si  0.2811470627211913 -0.4312477703122559 -0.4771045368875732
  Si -0.2650929092788085  0.2309122676877442  0.4307354691124267
  Si -0.2188529372788086 -0.2690877323122560 -0.0692645308875732
  Si  0.2349070907211914  0.0687522296877443  0.0228954551124267
  Si  0.1266970787211914 -0.4300977583122558 -0.4845045398875733
  Si -0.1106429102788085  0.2297622556877441  0.4381354451124268
  Si -0.3733029362788085 -0.2702377443122559 -0.0618645248875733
  Si  0.3893570897211915  0.0699022416877442  0.0154954791124269
  Si -0.4192929272788088 -0.2309877273122558  0.1543854471124270
  Si  0.4353470807211912  0.0306522246877443 -0.2007545228875731
  Si  0.2024870817211914 -0.4194677473122559  0.1789254551124268
  Si -0.1864329572788086  0.2191322446877442 -0.2252945308875731
  Si -0.2975128892788085 -0.2808677553122558  0.2747054691124271
  Si  0.3135670717211913  0.0805322526877441 -0.3210745448875735
  O   0.3859270807211914 -0.0413677503122558  0.2574154731124267
  O  -0.3698729272788084 -0.1589677333122560 -0.3037845488875732
  O  -0.1140729192788086  0.3410322366877443  0.1962154511124270
  O   0.1301270727211912  0.4586322306877441 -0.2425845268875733
  O   0.3186270897211914 -0.0339677483122562  0.4204154611124266
  O  -0.3025729652788085 -0.1663677693122558 -0.4667845368875733
  O  -0.1813728812788087  0.3336322306877442  0.0332154631124268
  O   0.1974270637211914  0.4660322666877441 -0.0795845388875731
  O   0.2098270807211915 -0.0529677493122560 -0.4766845368875731
  O  -0.1937729122788083 -0.1473677753122560  0.4303154351124268
  O  -0.2901729342788084  0.3526322546877441 -0.0696845348875732
  O   0.3062270877211912  0.4470322726877440  0.0233154891124268
  O   0.1112270807211915 -0.0330677483122557  0.3984154461124267
  O  -0.0951729412788087 -0.1672677393122559 -0.4447845368875731
  O  -0.3887729052788083  0.3327322606877440  0.0552154781124268
  O   0.4048270587211915  0.4669322366877442 -0.1015845538875732
  O   0.1310270797211914 -0.0558677503122560  0.2075154781124269
  O  -0.1149729492788087 -0.1444677713122560 -0.2538845538875736
  O  -0.3689728972788084  0.3555322586877441  0.2461154461124266
  O   0.3850270807211913  0.4441322686877440 -0.2924845218875733
  O   0.2563270777211912 -0.0524677523122559  0.2520154711124267
  O  -0.2402729392788085 -0.1478677393122558 -0.2983845468875732
  O  -0.2436729072788086  0.3521322606877441  0.2016154531124266
  O   0.2597270607211914  0.4475322366877439 -0.2479845288875735
  O   0.3849270637211915 -0.2534677383122559  0.2479154471124267
  O  -0.3688728812788084  0.0531322356877442 -0.2942845228875732
  O  -0.1150729652788087 -0.4468677643122560  0.2057154771124267
  O   0.1311270897211913  0.2465322616877441 -0.2520845528875734
  O   0.3130270837211915 -0.2670677303122558  0.4043154721124269
  O  -0.2969729302788084  0.0667322276877442 -0.4506845398875733
  O  -0.1869729162788087 -0.4332677723122558  0.0493154521124268
  O   0.2030270697211915  0.2329322696877442 -0.0956845278875733
  O   0.2040270717211911 -0.2559677363122559 -0.4915845398875732
  O  -0.1879729032788087  0.0556322336877442  0.4452154641124268
  O  -0.2959729432788085 -0.4443677663122558 -0.0547845358875731
  O   0.3120270967211913  0.2440322636877441  0.0084154601124267
  O   0.0965270777211913 -0.2690677643122559  0.4015154841124268
  O  -0.0804729462788085  0.0687322616877442 -0.4478845368875732
  O  -0.4034729002788082 -0.4312677383122558  0.0521154401124269
  O   0.4195270837211915  0.2309322356877441 -0.0984845458875731
  O   0.1288270797211915 -0.2512677313122560  0.2138154511124270
  O  -0.1127729412788085  0.0509322286877443 -0.2601845268875733
  O  -0.3711729052788086 -0.4490677713122560  0.2398154731124271
  O   0.3872270587211914  0.2487322686877442 -0.2861845488875733
  O   0.2563270777211912 -0.2377677563122558  0.2344154711124269
  O  -0.2402729392788085  0.0374322536877441 -0.2807845468875736
  O  -0.2436729072788086 -0.4625677463122559  0.2192154531124269
  O   0.2597270607211914  0.2622322436877442 -0.2655845288875733
  O   0.3269270657211913 -0.1486677523122559  0.3278154731124267
  O  -0.3108729122788088 -0.0516677503122558 -0.3741845488875732
  O  -0.1730729342788084  0.4483322496877440  0.1258154511124268
  O   0.1891270877211912  0.3513322476877443 -0.1721845268875732
  O   0.0861270797211915 -0.1510677333122559  0.3239154811124267
  O  -0.0700729492788086 -0.0492677503122558 -0.3702845568875732
  O  -0.4138728972788086  0.4507322306877442  0.1297154431124270
  O   0.4299270807211915  0.3489322366877441 -0.1760845188875732
  O   0.4225270747211913  0.0251322536877443  0.0997154711124271
  O  -0.4064729212788085 -0.2254677413122561 -0.1460845468875731
  O  -0.0774729252788084  0.2745322586877441  0.3539154531124268
  O   0.0935270787211913 -0.4748677613122558 -0.4002845288875733
  O   0.4003270867211914 -0.1042677763122560  0.0876154901124268
  O  -0.3842729332788086 -0.0960677513122559 -0.1339845658875731
  O  -0.0996729132788086  0.4039322736877440  0.3660154341124269
  O   0.1157270667211914  0.3957322536877441 -0.4123845098875734
  O   0.4102270897211915 -0.2341677543122560  0.0582154391124265
  O  -0.3941729072788082  0.0338322516877443 -0.1045845148875732
  O  -0.0897729392788085 -0.4661677483122559  0.3954154851124267
  O   0.1058270637211915  0.2658322456877442 -0.4417845608875732
  O   0.2083270697211914  0.0296322556877440  0.1185154911124271
  O  -0.1922729012788084 -0.2299677733122558 -0.1648845668875731
  O  -0.2916729452788084  0.2700322266877442  0.3351154331124268
  O   0.3077270987211915 -0.4703677293122559 -0.3814845088875733
  O   0.2179270837211913 -0.0975677513122559  0.0760154721124269
  O  -0.2018729452788086 -0.1027677653122558 -0.1223845478875731
  O  -0.2820729012788084  0.3972322346877442  0.3776154521124266
  O   0.2981270547211914  0.4024322626877441 -0.4239845278875733
  O   0.2028270807211911 -0.2276677493122560  0.0580154661124266
  O  -0.1867729422788087  0.0273322466877441 -0.1043845418875733
  O  -0.2971729042788087 -0.4726677533122559  0.3956154581124267
  O   0.3132270577211915  0.2723322506877441 -0.4419845338875731
  O   0.0112270767211915 -0.0486677513122558  0.2727154491124271
  O   0.0048270817211913 -0.1516677733122560 -0.3190845248875731
  O  -0.4887729282788085  0.3483322556877442  0.1809154751124269
  O  -0.4951729182788087  0.4513322706877440 -0.2272845508875731
  O   0.0057270527211917 -0.2476677303122559  0.2670154571124267
  O   0.0103270767211914  0.0473322276877441 -0.3133845328875732
  O  -0.4942729172788087 -0.4526677723122559  0.1866154671124267
  O  -0.4896728992788086  0.2523322696877441 -0.2329845428875732
  O   0.4319270847211913 -0.3502677683122559  0.1355154511124266
  O  -0.4158729312788085  0.1499322656877442 -0.1818845268875730
  O  -0.0680729152788084 -0.3500677343122560  0.3181154731124267
  O   0.0841270687211915  0.1497322316877443 -0.3644845488875731
  O   0.2067270727211911 -0.3436677453122559  0.1412154431124270
  O  -0.1906729342788087  0.1433322426877441 -0.1875845188875731
  O  -0.2932729122788084 -0.3566677573122559  0.3124154811124268
  O   0.3093270657211915  0.1563322546877441 -0.3587845568875733
  O   0.2902270857211912 -0.3526677493122559 -0.4555845408875733
  O  -0.2741729022788086  0.1523322466877441  0.4092154501124268
  O  -0.2097729442788085 -0.3476677533122559 -0.0907845498875732
  O   0.2258270677211913  0.1473322506877441  0.0444154741124267
  O   0.1181270777211913 -0.3527677653122558 -0.4534845348875731
  O  -0.1020729542788086  0.1524322626877441  0.4071154591124268
  O  -0.3818728922788086 -0.3475677373122559 -0.0928845408875731
  O   0.3979270757211914  0.1472322346877442  0.0465154651124267
  O   0.3879270847211915  0.3501322566877443  0.2360154391124267
  O  -0.3718729022788085  0.4495322706877438 -0.2823845148875734
  O  -0.1120729442788086 -0.0504677593122560  0.2176154851124265
  O   0.1281270687211915 -0.1498677733122558 -0.2639845608875735
  O   0.3223270777211913  0.3478322626877441  0.4014154671124268
  O  -0.3062729242788085  0.4518322346877441 -0.4477845358875733
  O  -0.1776729222788087 -0.0481677653122559  0.0522154571124267
  O   0.1937270757211913 -0.1521677373122558 -0.0985845328875732
  O   0.2071270797211912  0.3316322566877441  0.4862154621124266
  O  -0.1910729412788086  0.4680322406877442  0.4674154521124267
  O  -0.2928729052788085 -0.0319677593122558 -0.0325845478875733
  O   0.3089270587211914 -0.1683677433122559 -0.0137845278875732
  O   0.0892270807211912  0.3476322586877443  0.4099154471124268
  O  -0.0731729272788086  0.4520322086877442 -0.4562845378875732
  O  -0.4107729192788085 -0.0479677613122560  0.0437154771124266
  O   0.4268270727211913 -0.1523677113122560 -0.0900845528875731
  O   0.1286270767211912  0.3349322376877441  0.2241154911124265
  O  -0.1125729082788087  0.4647322896877442 -0.2704845668875735
  O  -0.3713729382788082 -0.0352677403122559  0.2295154331124269
  O   0.3874270917211915 -0.1650677923122559 -0.2758845088875732
  O   0.2585270707211913  0.3399322626877441  0.2317154411124269
  O  -0.2424728872788084  0.4597322346877441 -0.2780845168875731
  O  -0.2414729592788087 -0.0402677653122558  0.2219154831124268
  O   0.2575270827211913 -0.1600677373122559 -0.2682845588875732
  O   0.3877270817211915 -0.4411677723122560  0.2599154711124265
  O  -0.3716729282788085  0.2408322696877443 -0.3062845468875732
  O  -0.1122729182788085 -0.2591677303122557  0.1937154531124267
  O   0.1283270717211913  0.0588322276877442 -0.2400845288875735
  O   0.3228270707211915 -0.4542677403122559  0.4260154371124267
  O  -0.3067729472788085  0.2539322376877442 -0.4723845388875733
  O  -0.1771728992788084 -0.2460677623122559  0.0276154871124268
  O   0.1932270827211913  0.0457322596877441 -0.0739845338875733
  O   0.2041270737211915 -0.4488677383122561 -0.4961845368875731
  O  -0.1880729202788087  0.2485322356877442  0.4498154521124269
  O  -0.2958729262788085 -0.2514677643122558 -0.0501845478875731
  O   0.3119270797211915  0.0511322616877443  0.0038154721124268
  O   0.0902270747211915 -0.4442677493122560  0.4115154741124267
  O  -0.0741729142788083  0.2439322466877442 -0.4578845348875733
  O  -0.4097729322788086 -0.2560677533122560  0.0421154501124266
  O   0.4258270857211914  0.0557322506877442 -0.0884845258875733
  O   0.1312270757211913 -0.4323677423122558  0.2264154551124269
  O  -0.1151729222788085  0.2320322396877441 -0.2727845308875735
  O  -0.3687729242788084 -0.2679677603122559  0.2272154691124268
  O   0.3848270777211915  0.0676322576877442 -0.2735845448875733
  O   0.2577270717211914 -0.4307677743122560  0.2624154691124267
  O  -0.2416729332788085  0.2304322716877443 -0.3087845448875732
  O  -0.2422729132788086 -0.2695677283122559  0.1912154551124268
  O   0.2583270667211914  0.0692322256877442 -0.2375845308875734
  O   0.3134270907211913  0.4528322216877441  0.2855154871124267
  O  -0.2973729372788085  0.3468322756877442 -0.3318845628875732
  O  -0.1865729092788086 -0.1531677243122561  0.1681154371124267
  O   0.2026270627211914 -0.0471677783122559 -0.2144845128875732
  O   0.0931270797211914  0.4517322776877442  0.2934154871124270
  O  -0.0770729182788086  0.3479322196877441 -0.3397845628875733
  O  -0.4068729282788086 -0.1520677803122559  0.1602154371124269
  O   0.4229270817211914 -0.0482677223122558 -0.2065845128875732
  O   0.4266270697211913  0.2712322476877442  0.0883154871124267
  O  -0.4105728862788082 -0.4715677503122559 -0.1346845628875732
  O  -0.0733729602788084  0.0284322496877443  0.3653154371124267
  O   0.0894270837211914 -0.2287677523122559 -0.4116845128875730
  O   0.4234270747211914  0.4013322586877441  0.0633154511124268
  O  -0.4073729512788082  0.3983322386877441 -0.1096845268875732
  O  -0.0765728952788087 -0.1016677613122558  0.3903154731124270
  O   0.0926270787211916 -0.0986677413122558 -0.4366845488875732
  O   0.4018270667211914 -0.4681677223122560  0.0681154731124267
  O  -0.3857729432788084  0.2678322196877441 -0.1144845488875732
  O  -0.0981729032788086 -0.2321677803122558  0.3855154511124267
  O   0.1142270867211914  0.0318322776877442 -0.4318845268875732
  O   0.1980270747211912  0.2709322566877441  0.0921154621124267
  O  -0.1819729212788086 -0.4712677593122558 -0.1384845378875732
  O  -0.3019729252788084  0.0287322406877442  0.3615154621124267
  O   0.3180270787211914 -0.2290677433122559 -0.4078845378875732
  O   0.1942270697211912  0.4030322436877440  0.0905154351124267
  O  -0.1781729462788086  0.3966322536877440 -0.1368845108875731
  O  -0.3057729002788083 -0.1033677463122560  0.3631154891124268
  O   0.3218270837211913 -0.0969677563122558 -0.4094845648875731
  O   0.2154270707211914 -0.4675677423122560  0.0854154821124269
  O  -0.1993728872788085  0.2672322396877442 -0.1317845578875732
  O  -0.2845729592788084 -0.2327677603122559  0.3682154421124266
  O   0.3006270827211914  0.0324322576877440 -0.4145845178875733
  O   0.0041270847211914  0.3574322466877442  0.2664154771124265
  O   0.0119270767211916  0.4422322506877440 -0.3127845528875732
  O  -0.4958729152788088 -0.0577677493122559  0.1872154471124267
  O  -0.4880729312788086 -0.1425677533122560 -0.2335845228875732
  O   0.0067270997211915 -0.4520677323122559  0.2648154501124269
  O   0.0093270767211915  0.2517322296877442 -0.3111845258875733
  O  -0.4932729302788086 -0.2482677703122560  0.1888154741124268
  O  -0.4906729462788087  0.0479322676877443 -0.2351845498875733
  O   0.4560392587706941 -0.1442013639700109  0.4883637636384490
  O   0.4338837657781431  0.4785357926125002 -0.4292529998335696
  O   0.0955327979664425  0.3555508015278684  0.0236670657332109
  O   0.0743246156204403  0.0278175183010640  0.0281691174445246
  Al  0.3217070697211914 -0.0692677513122559  0.3132354621124269
  Al -0.1875329012788085 -0.1560177803122560 -0.2098745108875732
  Al  0.0826070907211913  0.2283522486877440 -0.3424845338875732
  Al  0.2812770907211912 -0.2760677333122559 -0.4872145388875731
  Al -0.2149329182788086 -0.0390577613122558 -0.0525845288875732
  Al  0.0789870767211915  0.3729822636877440  0.2983754871124269
  Al  0.0807070727211914 -0.4693477753122559  0.2992454771124268
  Al -0.0646529192788086  0.2690122726877442 -0.3456145528875733
  H   0.4078320019413257 -0.0096279825935741  0.3028102433431196
  H  -0.1721419812049776 -0.2620721448720289 -0.2115525456117255
  H   0.0863769984576366  0.1485997606713345 -0.4376909475126675
  H   0.3595104581206776 -0.2529948867789475 -0.3932218619635756
  H  -0.2934775642964578 -0.0150370215379296  0.0362547555780641
  H   0.1401791554694627  0.4514312348647882  0.2743006062519499
  H   0.0059539370150126 -0.4588058406130229  0.1922087950213122
  H  -0.0869274239585105  0.1992380437635664 -0.2382743840933299
  H  -0.4330165596887107 -0.0937758810368210  0.4029713337090567
  H  -0.4088814957044903 -0.1522706631641256  0.4959464630544961
  H  -0.3952882125627466 -0.0655745170768518 -0.4844704042223646
  H   0.4642989841294884 -0.0173798106288161  0.4347797980921060
  H   0.4200652734218400 -0.0260389904682188 -0.4516330341424108
  H   0.4997684697620610  0.0122244774964044 -0.4518570220921944
  H   0.4742135823684750 -0.1885565594042383  0.4984282280495291
  H  -0.4946522125226823 -0.1054915136466212 -0.3880599977846007
  H   0.4390964712862644  0.4939970513965863  0.3703319139419288
  H   0.4954100810569224  0.4295598410377490  0.4045876446085074
  H  -0.4737766377011814 -0.4922164345893332  0.3628365093672479
  H   0.4253639439044430 -0.4023264888497183  0.4868423841111955
  H   0.4720406442545215 -0.3987082622090141 -0.4011910837150427
  H  -0.4877919565626202 -0.3865254528029458  0.4820649964229384
  H   0.4408276103209050  0.4305703666697285 -0.4308205787135895
  H  -0.4658615557824372  0.4986535171079530 -0.4505481064630281
  H  -0.0343787612209614  0.3629165123272374  0.0732664133700778
  H  -0.0285599155581566  0.3378619640205717 -0.0534726222966446
  H  -0.0578559438579933  0.4191141235647584 -0.0237805331805607
  H   0.0501407067508048  0.4500019627018090  0.1428374654247770
  H   0.1123751001085832  0.4818457838562282  0.0622729677565610
  H   0.0286031547968644 -0.4920969794168856  0.0470615802179949
  H   0.0901561570101574  0.3178091849886766 -0.0208698750314711
  H   0.0605708371202696  0.4233293344467114 -0.0819819523465850
  H  -0.0422157786635488  0.0739896892703610 -0.0447734118929867
  H  -0.0461629127573469  0.0759505270177850  0.0874519618650295
  H  -0.0939733260597525  0.0165525497105650  0.0207541092279348
  H   0.0194946003611721 -0.0246718572201799 -0.1321269126000569
  H   0.0570740208819415 -0.0874840209179312 -0.0574540574284215
  H  -0.0308012390297084 -0.0841525581437261 -0.0681725871199030
  H   0.0747545175421578  0.0574881222448993  0.0851909604247991
  H   0.0072348418811433 -0.0374329842994012  0.0951675839294552
  C  -0.4989655186646028 -0.0962757253195417 -0.4690475094925605
  C  -0.4300133356451625 -0.1021415962886428  0.4836850779117036
  C   0.4695415838407198 -0.0275922125716177 -0.4852350841723813
  C   0.4858558976745008 -0.4900978849060894 -0.4857027456594497
  C   0.4867831164901650  0.4839620398084519  0.4067094266955598
  C   0.4733015614800803 -0.4147941914770402 -0.4792675475302765
  C   0.0492590240253362  0.4067381401871234 -0.0052305227553193
  C  -0.0220717071932044  0.3802979488992329 -0.0020944266472853
  C   0.0606398659698263  0.4653140460778206  0.0658787610443070
  C   0.0119532084325287 -0.0069335036211146  0.0267441929365474
  C  -0.0460602842063731  0.0426278258460229  0.0221723701795776
  C   0.0143777359973459 -0.0537513081883442 -0.0631233269665001
