_cell_length_a 20.1071
_cell_length_b 19.8791
_cell_length_c 13.3691
_cell_angle_alpha 90.
_cell_angle_beta  90.
_cell_angle_gamma 90.
loop_
_atom_site_type_symbol
_atom_site_fract_x
_atom_site_fract_y
_atom_site_fract_z
  Si -0.0816720727375488  0.0392151106943359 -0.3492404815999755
  Si  0.0772079232624512 -0.0717048643056641  0.2905594704000244
  Si  0.4183279272624513  0.4282951056943360 -0.2094405295999754
  Si -0.4227920767375488 -0.4607849123056642  0.1507595184000244
  Si  0.1840879322624513 -0.0471448903056641  0.1342394944000244
  Si  0.3114479182624513  0.4528551096943360 -0.3657605055999756
  Si -0.3159120677375490 -0.4853448863056642  0.3070794944000243
  Si -0.2226320807375489  0.0462451126943360  0.0241194924000244
  Si  0.2181679012624512 -0.0787348743056641 -0.0828005075999756
  Si  0.2773679492624510  0.4212651256943361  0.4171994924000244
  Si -0.2818320687375489 -0.4537549023056643 -0.4758805035999756
  Si -0.3782820777375488  0.0460851116943359  0.0073994954000245
  Si  0.3738179202624513 -0.0785748963056641 -0.0660805105999756
  Si  0.1217179302624514  0.4214251036943359  0.4339194894000244
  Si -0.1261820797375489 -0.4539148803056641 -0.4926005005999758
  Si -0.4254520757375490  0.0117951106943360 -0.2053105235999756
  Si  0.4209879042624513 -0.0442848803056641  0.1466295124000243
  Si  0.0745479462624512  0.4557151196943359 -0.3533704875999753
  Si -0.0790120657375488 -0.4882048963056642  0.2946894764000245
  Si -0.3066720817375488  0.0396051106943359 -0.3426505325999754
  Si  0.1933279032624513  0.4279051126943361 -0.2160304785999755
  Si -0.1977920527375487 -0.4603948593056642  0.1573494674000244
  Si -0.0768120887375487 -0.1877248883056641 -0.3486405015999756
  Si  0.0723479392624514  0.1552351116943360  0.2899594904000244
  Si  0.4231879112624511 -0.3447648883056642 -0.2100405095999756
  Si -0.1899820867375489 -0.1427748803056641 -0.2032204865999755
  Si  0.1855179072624513  0.1102851036943360  0.1445394754000243
  Si  0.3100179432624512 -0.3897148963056640 -0.3554605245999754
  Si -0.3144820627375489  0.3572251196943359  0.2967795134000243
  Si  0.2245179412624513  0.1596550936943359 -0.0653104785999756
  Si  0.2710179092624513 -0.3403449063056642  0.4346894924000244
  Si -0.2754820887375490  0.3078551296943359 -0.4933705325999755
  Si -0.3832820727375488 -0.1925848723056640  0.0050194934000244
  Si  0.3788179162624513  0.1600950956943359 -0.0637004975999756
  Si  0.1167179342624511 -0.3399049043056642  0.4362995024000244
  Si -0.1211820837375487  0.3074151276943360 -0.4949805135999758
  Si -0.4306720717375489 -0.1456348893056640 -0.2045004965999754
  Si  0.4262079002624511  0.1131451126943359  0.1458194854000245
  Si  0.0693279502624514 -0.3868548873056641 -0.3541805145999755
  Si -0.0737920697375489  0.3543651106943360  0.2954995034000245
  Si -0.3114420767375491 -0.1815248723056641 -0.3434205055999753
  Si  0.3069779272624511  0.1490350956943360  0.2847394944000245
  Si  0.1885579232624512 -0.3509649043056642 -0.2152605055999754
  Si -0.1930220727375489  0.3184751276943361  0.1565794944000242
  Si -0.0738620757375488  0.4267251196943359 -0.3639004825999753
  Si  0.0693979262624513 -0.4592149253056642  0.3052194714000245
  Si  0.4261379242624511  0.0407851036943360 -0.1947805285999754
  Si -0.4306020737375489 -0.0732748513056641  0.1360995174000243
  Si -0.1898620727375488  0.4568051096943359 -0.2174804805999754
  Si  0.1853979232624514 -0.4892948863056641  0.1587994694000242
  Si  0.3101379272624513  0.0107051136943360 -0.3412005305999753
  Si -0.3146020767375490 -0.0431948903056640  0.2825195194000243
  Si -0.2251920697375489  0.4226451216943358  0.0000594944000243
  Si  0.2207279202624510 -0.4551348683056641 -0.0587404965999756
  Si -0.2792720797375491 -0.0773549083056642 -0.4999405145999755
  Si -0.3806820737375488  0.4193851056943360  0.0044594924000245
  Si  0.3762179012624512 -0.4518748523056642 -0.0631405115999756
  Si  0.1193179492624514  0.0481251176943359  0.4368594884000244
  Si -0.1237820687375488 -0.0806149243056641 -0.4955404995999754
  Si  0.4268079402624513 -0.4893949033056641  0.1490994694000242
  Si  0.0687279102624511  0.0106050966943360 -0.3509005305999753
  Si -0.0731920597375489 -0.0430948733056641  0.2922195194000245
  Si -0.3148620727375490  0.4215351046943360 -0.3467705245999755
  Si  0.3103979232624512 -0.4540249113056641  0.2880895134000245
  Si  0.1851379272624512  0.0459751186943358 -0.2119104865999754
  Si -0.1896020767375488 -0.0784648653056642  0.1532294754000242
  Si -0.0783420797375487 -0.3442049023056641 -0.3435105085999754
  Si  0.0738779302624514  0.3117151256943360  0.2848294974000242
  Si  0.4216579202624511 -0.1882848743056641 -0.2151705025999756
  Si -0.4261220697375488  0.1557950976943359  0.1564894914000243
  Si -0.1894520817375489 -0.3849449153056640 -0.1977005005999753
  Si  0.1849879022624512  0.3524551386943360  0.1390194894000242
  Si  0.3105479482624511 -0.1475448613056640 -0.3609805105999755
  Si -0.3150120677375489  0.1150550846943361  0.3022994994000245
  Si -0.2291120887375489 -0.3473249073056641  0.0167394954000244
  Si  0.2246479392624512  0.3148351306943359 -0.0754204985999756
  Si  0.2708879112624512 -0.1851648693056642  0.4245795014000244
  Si -0.2753520607375488  0.1526750926943361 -0.4832605125999755
  Si -0.3835620727375488 -0.3461748953056640  0.0093394924000244
  Si  0.3790979382624513  0.3136851186943359 -0.0680205225999755
  Si  0.1164379122624511 -0.1863148813056641  0.4319795074000243
  Si -0.1209020617375487  0.1538251046943360 -0.4906604885999755
  Si  0.0704479212624509 -0.1470648643056640 -0.3517705205999753
  Si -0.0749120707375489  0.1145750876943360  0.2930895094000245
  Si -0.3077720697375488 -0.3355448843056641 -0.3272305125999756
  Si  0.3033078912624511  0.3030551076943360  0.2685495014000245
  Si  0.1922279592624511 -0.1969448923056640 -0.2314504985999753
  Si -0.1966920797375490  0.1644551156943359  0.1727694874000242
  O  -0.1243320707375488  0.0425551126943360 -0.2487404945999755
  O   0.1198679212624512 -0.0750448703056642  0.1900594834000244
  O   0.3756679292624512  0.4249550996943360 -0.3099405165999754
  O  -0.3801320787375490 -0.4574449063056641  0.2512595054000243
  O  -0.1916320617375489  0.0499551146943358 -0.0857405065999757
  O   0.1871678832624512 -0.0824449063056640  0.0270594954000243
  O   0.3083679672624512  0.4175550936943359 -0.4729405045999754
  O  -0.3128320877375488 -0.4500448703056640  0.4142594934000245
  O  -0.3004320707375488  0.0309551136943358  0.0171594954000245
  O   0.2959679362624513 -0.0634449123056642 -0.0758405325999756
  O   0.1995679142624512  0.4365551176943359  0.4241594974000245
  O  -0.2040320637375490 -0.4690448643056642 -0.4828404785999756
  O  -0.3990320707375489  0.0508551146943361 -0.1077405215999756
  O   0.3945679072624511 -0.0833448763056642  0.0490594954000244
  O   0.1009679432624514  0.4166551236943359 -0.4509404895999755
  O  -0.1054320927375487 -0.4491449003056640  0.3922594784000243
  O  -0.3792320717375488  0.0280551126943359 -0.2986404895999754
  O   0.3747678992624510 -0.0605449083056641  0.2399594784000242
  O   0.1207679512624513  0.4394551216943358 -0.2600405215999756
  O  -0.1252320707375489 -0.4719448683056641  0.2013595104000243
  O  -0.2539320737375490  0.0314551106943359 -0.2541404965999756
  O   0.2494679092624512 -0.0639448763056641  0.1954594854000243
  O   0.2460679412624511  0.4360551236943360 -0.3045405145999757
  O  -0.2505320907375488 -0.4685449003056642  0.2458595034000242
  O  -0.1253320877375488 -0.1695448753056640 -0.2582405205999755
  O   0.1208679672624513  0.1370550986943360  0.1995595094000244
  O   0.3746678832624510 -0.3629449013056643 -0.3004404905999756
  O  -0.3791320617375489  0.3304551246943359  0.2417594794000243
  O  -0.1972320677375488 -0.1831448673056640 -0.1018404955999754
  O   0.1927679182624513  0.1506550906943360  0.0431594924000243
  O   0.3027679322624511 -0.3493449093056641 -0.4568405155999756
  O  -0.3072320817375488  0.3168551326943361  0.3981595044000243
  O  -0.3062320797375490 -0.1720448733056641  0.0022594924000244
  O   0.3017679452624511  0.1395550966943360 -0.0609405035999755
  O   0.1937679052624512 -0.3604449033056640  0.4390594964000245
  O  -0.1982320547375490  0.3279551266943359 -0.4977405075999756
  O  -0.4137320737375489 -0.1851449013056641 -0.1046404835999755
  O   0.4092679022624512  0.1526551246943360  0.0459594954000244
  O   0.0862679482624515 -0.3473448753056640 -0.4540405275999755
  O  -0.0907320677375487  0.3148550986943359  0.3953594864000245
  O  -0.3814320717375487 -0.1673448683056642 -0.2923405165999753
  O   0.3769679072624513  0.1348550916943361  0.2336595054000242
  O   0.1185679432624511 -0.3651449083056641 -0.2663404945999753
  O  -0.1230320927375488  0.3326551316943360  0.2076594834000242
  O  -0.2539320737375490 -0.1538448933056640 -0.2717404965999754
  O   0.2494679092624512  0.1213551166943359  0.2130594854000241
  O   0.2460679412624511 -0.3786448833056641 -0.2869405145999754
  O  -0.2505320907375488  0.3461551066943360  0.2282595034000242
  O  -0.1833320857375490 -0.0647448893056641 -0.1783404945999757
  O   0.1788679362624511  0.0322551126943361  0.1196594834000244
  O   0.3166679142624513 -0.4677448873056642 -0.3803405165999755
  O  -0.3211320637375489  0.4352551106943360  0.3216595054000244
  O  -0.4241320717375488 -0.0671448703056641 -0.1822404865999755
  O   0.4196678992624512  0.0346551126943360  0.1235594754000244
  O   0.0758679512624511 -0.4653449063056640 -0.3764405245999754
  O  -0.0803320707375488  0.4328550996943358  0.3177595134000244
  O  -0.0877320767375489  0.1090551166943360 -0.4064404965999753
  O   0.0832679272624512 -0.1415448783056643  0.3477594854000245
  O   0.4122679232624514  0.3584551216943359 -0.1522405145999754
  O  -0.4167320727375489 -0.3909448983056640  0.0935595034000242
  O  -0.1099320647375488 -0.0203449133056641 -0.4185404775999754
  O   0.1054679152624511 -0.0121448883056641  0.3598594664000245
  O   0.3900679352624513  0.4878551366943357 -0.1401405335999754
  O  -0.3945320847375489  0.4796551166943359  0.0814595224000243
  O  -0.1000320617375487 -0.1502448913056642 -0.4479405285999757
  O   0.0955679412624514  0.1177551146943361  0.3892595174000243
  O   0.3999679092624512 -0.3822448853056641 -0.1107404825999755
  O  -0.4044320877375487  0.3497551086943360  0.0520594714000245
  O  -0.3019320817375489  0.1135551186943358 -0.3876404765999753
  O   0.2974679472624512 -0.1460449103056641  0.3289594654000245
  O   0.1980679032624511  0.3539550896943360 -0.1710405345999754
  O  -0.2025320527375488 -0.3864448663056640  0.1123595234000243
  O  -0.2923320677375489 -0.0136448883056641 -0.4301404955999754
  O   0.2878679032624513 -0.0188449023056641  0.3714594844000245
  O   0.2076679472624514  0.4811550976943359 -0.1285405155999757
  O  -0.2121320967375489  0.4863551256943359  0.0698595044000243
  O  -0.3074320707375491 -0.1437448863056642 -0.4481405015999758
  O   0.3029679062624511  0.1112551096943359  0.3894594904000243
  O   0.1925679442624510 -0.3887448903056641 -0.1105405095999756
  O  -0.1970320937375488  0.3562551136943359  0.0518594984000244
  O  -0.4990320747375488  0.0352551116943359 -0.2334405185999754
  O   0.4945679302624510 -0.0677449103056642  0.1747595074000245
  O   0.0009679202624512  0.4322551186943360 -0.3252404925999755
  O  -0.0054320697375489 -0.4647448663056641  0.2665594814000244
  O   0.4954679012624513 -0.1637448673056641 -0.2391405105999755
  O  -0.4999320747375487  0.1312550906943359  0.1804594994000243
  O  -0.0045320687375490 -0.3687449093056640 -0.3195405005999757
  O   0.0000679492624511  0.3362551326943359  0.2608594894000244
  O  -0.0783320667375489 -0.2663449053056641 -0.3706405165999758
  O   0.0738679172624512  0.2338551286943360  0.3119595054000245
  O   0.4216679332624513 -0.2661448713056642 -0.1880404945999755
  O  -0.4261320827375488  0.2336550946943361  0.1293594834000244
  O  -0.3035320787375489 -0.2597448823056641 -0.3649405245999753
  O   0.2990679142624511  0.2272551056943359  0.3062595134000245
  O   0.1964679362624513 -0.2727448943056641 -0.1937404865999755
  O  -0.2009320857375488  0.2402551176943359  0.1350594754000242
  O  -0.2200320657375490 -0.2687448863056642  0.0382594914000243
  O   0.2155679462624511  0.2362551096943359 -0.0969405175999756
  O   0.2799679042624512 -0.2637448903056641  0.4030594824000244
  O  -0.2844320837375489  0.2312551136943359 -0.4617404935999755
  O  -0.3921320737375488 -0.2688449023056640  0.0403594974000244
  O   0.3876678942624513  0.2363551256943359 -0.0990405085999755
  O   0.1078679562624512 -0.2636448743056641  0.4009594914000245
  O  -0.1123320757375488  0.2311550976943360 -0.4596405025999757
  O  -0.1223320667375488  0.4340551196943360 -0.2701405285999756
  O   0.1178679462624512 -0.4665448663056643  0.2114595174000244
  O   0.3776679042624512  0.0334551036943359 -0.2885404825999757
  O  -0.3821320827375488 -0.0659449103056640  0.2298594714000242
  O  -0.1879320737375488  0.4317551256943359 -0.1047405005999755
  O   0.1834679242624512 -0.4642449023056640  0.0460594964000243
  O   0.3120679262624512  0.0357550976943360 -0.4539405105999756
  O  -0.3165320757375489 -0.0682448743056641  0.3952594994000244
  O  -0.3031320717375489  0.4155551196943358 -0.0199405055999756
  O   0.2986679072624512 -0.4480448963056640 -0.0387405155999755
  O   0.1968679432624511  0.0519551036943360  0.4612594844000243
  O  -0.2013320927375488 -0.0844448803056641  0.4800595044000244
  O  -0.4210320707375489  0.4315551216943360 -0.0962405205999754
  O   0.4165679212624511 -0.4640449283056640  0.0375594944000244
  O   0.0789679292624512  0.0359551016943359 -0.4624404905999757
  O  -0.0834320787375489 -0.0684448483056642  0.4037594794000245
  O  -0.3816320747375490  0.4188551006943360 -0.2820404765999757
  O   0.3771679402624511 -0.4513448473056641  0.2233594654000242
  O   0.1183679102624514  0.0486551226943359 -0.2766405345999755
  O  -0.1228320597375487 -0.0811449293056641  0.2179595234000244
  O  -0.2517320807375490  0.4238551256943359 -0.2744405265999754
  O   0.2472679612624513 -0.4563449023056642  0.2157595154000243
  O   0.2482678892624510  0.0436550976943359 -0.2842404845999756
  O  -0.2527320687375490 -0.0761448743056641  0.2255594734000243
  O  -0.1225320697375487 -0.3572449093056642 -0.2462404965999757
  O   0.1180679202624512  0.3247551326943361  0.1875594854000244
  O   0.3774679302624512 -0.1752448673056640 -0.3124405145999756
  O  -0.3819320797375489  0.1427550906943360  0.2537595034000243
  O  -0.1874320807375488 -0.3703448773056641 -0.0801405305999755
  O   0.1829679012624512  0.3378551006943360  0.0214594934000243
  O   0.3125679492624512 -0.1621448993056641 -0.4785404805999755
  O  -0.3170320687375490  0.1296551226943358  0.4198594984000243
  O  -0.3061320777375488 -0.3649448753056643 -0.0023405045999755
  O   0.3016679282624511  0.3324550986943360 -0.0563405155999755
  O   0.1938679222624513 -0.1675449013056640  0.4436594844000245
  O  -0.1983320717375488  0.1350551246943361  0.4976595044000244
  O  -0.4200320767375488 -0.3603448863056642 -0.0946404935999756
  O   0.4155679342624514  0.3278551096943361  0.0359594974000244
  O   0.0799679162624511 -0.1721448903056641 -0.4640405175999757
  O  -0.0844320657375488  0.1396551136943360  0.4053595064000243
  O  -0.3790320757375489 -0.3484448793056640 -0.2797405125999755
  O   0.3745679262624512  0.3159551026943359  0.2210595014000242
  O   0.1209679242624513 -0.1840448973056641 -0.2789404985999754
  O  -0.1254320737375488  0.1515551206943360  0.2202594874000242
  O  -0.2525320797375488 -0.3468449113056642 -0.2437404985999755
  O   0.2480679152624512  0.3143551346943361  0.1850594874000243
  O   0.2474679352624511 -0.1856448653056641 -0.3149405125999755
  O  -0.2519320847375487  0.1531550886943360  0.2562595014000243
  O  -0.1968320607375490 -0.4632449153056641 -0.2206404805999755
  O   0.1923679112624512  0.4307551386943360  0.1619594694000242
  O   0.3031679392624512 -0.0692448613056642 -0.3380405305999757
  O  -0.3076320887375489  0.0367550846943360  0.2793595194000245
  O  -0.4171320717375488 -0.4643448593056641 -0.2127404805999754
  O   0.4126679302624512  0.4318550826943359  0.1540594694000243
  O   0.0828679202624511 -0.0681449173056641 -0.3459405305999755
  O  -0.0873320697375489  0.0356551406943360  0.2872595194000244
  O  -0.0836320817375490  0.3551551106943360 -0.4178404805999756
  O   0.0791679622624514 -0.3876448873056642  0.3591594694000244
  O   0.4163678882624512  0.1123551126943359 -0.1408405305999755
  O  -0.4208320677375488 -0.1448448893056641  0.0821595194000245
  O  -0.0868320767375488  0.4852551216943359 -0.4428405165999755
  O   0.0823678972624514  0.4822551016943359  0.3841595054000244
  O   0.4131679532624511 -0.0177448983056641 -0.1158404945999755
  O  -0.4176320727375488 -0.0147448783056640  0.0571594834000244
  O  -0.1084320847375488 -0.3842448593056642 -0.4380404945999756
  O   0.1039679052624512  0.3517550826943359  0.3793594834000244
  O   0.3915679452624513 -0.1482449173056640 -0.1206405165999755
  O  -0.3960320647375488  0.1157551406943360  0.0619595054000244
  O  -0.3122320767375489  0.3548551196943359 -0.4140405055999756
  O   0.3077679272624512 -0.3873448963056640  0.3553594944000244
  O   0.1877679232624513  0.1126551036943358 -0.1446405055999754
  O  -0.1922320727375489 -0.1451448803056641  0.0859594944000244
  O  -0.3160320817375489  0.4869551066943359 -0.4156405325999757
  O   0.3115679022624512  0.4805551166943358  0.3569595214000245
  O   0.1839679482624513 -0.0194448833056641 -0.1430404785999755
  O  -0.1884320677375489 -0.0130448933056641  0.0843594674000245
  O  -0.2948320807375488 -0.3836448793056641 -0.4207404855999754
  O   0.2903679612624511  0.3511551026943360  0.3620594744000245
  O   0.2051678892624513 -0.1488448973056641 -0.1379405255999756
  O  -0.2096320687375488  0.1163551206943360  0.0792595144000243
  O   0.4938679332624512  0.4413551096943359 -0.2397404905999757
  O  -0.4983320747375487 -0.4738448863056642  0.1810594794000244
  O  -0.0061320667375490  0.0261551136943358 -0.3189405205999756
  O   0.0016679172624512 -0.0586448903056642  0.2602595094000245
  O   0.4964679482624512 -0.3681448693056641 -0.2413405175999754
  O   0.4990679252624513  0.3356550926943360  0.1826595064000242
  O  -0.0035320817375489 -0.1643449073056641 -0.3173404935999756
  O  -0.0009320977375489  0.1318551306943360  0.2586594824000243
  O  -0.0542198926880462 -0.0602785009634192 -0.0177922040739533
  Al -0.1885520817375488  0.0146551116943360 -0.1929205055999754
  Al  0.3022079472624512 -0.0720949173056641  0.2839695214000244
  Al -0.4276520607375488  0.3122751116943359  0.1513594984000244
  Al -0.2289820607375490 -0.1921448703056641  0.0066294934000245
  Al  0.2748079302624511  0.0448651016943359  0.4412595034000244
  Al -0.4312720747375487  0.4569051266943358 -0.2077804805999755
  Al -0.4295520787375488 -0.3854249123056641 -0.2069104905999755
  Al  0.4250879292624511  0.3529351356943360  0.1482294794000243
  H  -0.1024271495174145  0.0742948804130177 -0.2033457243692826
  H   0.3175988673362822 -0.1781492818654372  0.2822914866758721
  H  -0.4238821530011036  0.2325226236779263  0.0561530847749301
  H  -0.1507486933380627 -0.1690720237723557  0.1006221703240220
  H   0.1962632842448020  0.0688858414686623 -0.4699012121343383
  H  -0.3700799959892776 -0.4646459021286200 -0.2318553614604524
  H   0.4956947855562723 -0.3748829776064311 -0.3139471726910901
  H   0.4028134245827493  0.2831609067701580  0.2555696481942677
  H   0.0567242888525489 -0.0098530180302292 -0.1031846340033457
  H   0.0808593528367694 -0.0683478001575339 -0.0102095046579062
  H   0.0944526359785132  0.0183483459297399  0.0093736280652331
  H  -0.0459601673292518  0.0665430523777756 -0.0713761696202963
  H  -0.0901938780369004  0.0578838725383732  0.0422109981451868
  H  -0.0104906816966791  0.0961473405029964  0.0419870101954032
  H  -0.0360455690902653 -0.1046336963976466 -0.0077277396628732
  H  -0.0049113639814225 -0.0215686506400293  0.1057840345029970
  C  -0.0092246701233431 -0.0123528623129498  0.0247965227950370
  C   0.0597275128960973 -0.0182187332820511 -0.0224708898006988
  C  -0.0407175676180205  0.0563306504349741  0.0086089481152164
