_cell_length_a 20.1071
_cell_length_b 19.8791
_cell_length_c 13.3691
_cell_angle_alpha 90.
_cell_angle_beta  90.
_cell_angle_gamma 90.
loop_
_atom_site_type_symbol
_atom_site_fract_x
_atom_site_fract_y
_atom_site_fract_z
  Si  0.3241943117686767  0.4266445864786376  0.1698074939401857
  Si  0.4830743077686768  0.3157246114786376 -0.1903925540598143
  Si -0.1758056882313232 -0.1842754185213622  0.3096074459401855
  Si -0.0169256922313232 -0.0733554365213624 -0.3301925060598145
  Si -0.4100456832313230  0.3402845854786376 -0.3467125300598144
  Si -0.2826856972313229 -0.1597154145213622  0.1532874699401856
  Si  0.0899543167686764 -0.0979154105213624 -0.1738725300598145
  Si  0.1832343037686766  0.4336745884786377 -0.4568325320598145
  Si -0.3759657142313231  0.3086946014786375  0.4362474679401855
  Si -0.3167656662313233 -0.1913053985213622 -0.0637525320598145
  Si  0.1240343157686767 -0.0663254265213626  0.0431674719401856
  Si  0.0275843067686767  0.4335145874786377 -0.4735525290598144
  Si -0.2203156952313230  0.3088545794786377  0.4529674649401856
  Si -0.4724156852313229 -0.1911454205213623 -0.0470325350598144
  Si  0.2796843047686765 -0.0664854045213623  0.0264474749401853
  Si -0.0195856912313235  0.3992245864786377  0.3137374519401856
  Si -0.1731457112313232  0.3431445954786376 -0.3343225120598145
  Si  0.4804143307686767 -0.1568554045213624  0.1656774879401859
  Si  0.3268543187686767 -0.1007754205213625 -0.1862625480598143
  Si  0.0991943027686767  0.4270345864786376  0.1763974429401858
  Si -0.4008057122313231 -0.1846654115213622  0.3030174969401855
  Si  0.2080743317686767 -0.0729653835213624 -0.3236025570598144
  Si  0.3290542957686768  0.1997045874786376  0.1704074739401855
  Si  0.4782143237686771 -0.4573354125213622 -0.1909925340598144
  Si -0.1709457042313234  0.0426645874786376  0.3090074659401855
  Si  0.2158842977686767  0.2446545954786377  0.3158274889401857
  Si -0.4086157082313229  0.4977145794786377 -0.3364125490598144
  Si -0.2841156722313232 -0.0022854205213623  0.1635874509401858
  Si  0.0913843217686766 -0.2553454045213623 -0.1841725110598144
  Si -0.3696156742313231 -0.4529154305213622  0.4537374969401854
  Si -0.3231157062313231  0.0470845694786376 -0.0462625320598144
  Si  0.1303842957686765 -0.3047153945213623  0.0256774429401856
  Si  0.0225843117686768  0.1948446034786377 -0.4759325310598144
  Si -0.2153156992313232 -0.4524754285213623  0.4553474779401856
  Si -0.4774156812313232  0.0475245714786375 -0.0446525220598144
  Si  0.2846843007686770 -0.3051553965213623  0.0240674619401853
  Si -0.0248056872313234  0.2417945864786377  0.3145474789401856
  Si -0.1679257152313234 -0.4994254115213623 -0.3351325390598145
  Si  0.4751943347686770  0.0005745884786377  0.1648674609401857
  Si  0.3320743147686765 -0.2582054135213623 -0.1854525210598143
  Si  0.0944243077686763  0.2059046034786375  0.1756274699401858
  Si -0.2871556882313233 -0.4635354285213623 -0.1962125300598143
  Si -0.4055756922313231  0.0364645714786376  0.3037874699401856
  Si  0.2128443117686766 -0.2940953965213621 -0.3243725300598145
  Si  0.3320043087686766 -0.1858454045213622  0.1551474929401859
  Si  0.4752643107686769 -0.0717854495213623 -0.1757325530598144
  Si -0.1679956912313235  0.4282145794786376  0.3242674469401855
  Si -0.0247356892313233  0.3141546244786377 -0.3448525070598145
  Si  0.2160043117686766 -0.1557654145213623  0.3015674949401855
  Si -0.4087356922313229 -0.1018654105213623 -0.3221525550598145
  Si -0.2839956882313230  0.3981345894786377  0.1778474449401859
  Si  0.0912643077686765  0.3442345854786377 -0.1984325050598146
  Si  0.1806743147686766 -0.1899254025213624 -0.4808925300598146
  Si -0.3734056952313233 -0.0677053925213624  0.4603074789401855
  Si  0.1265943047686764  0.3100745674786375  0.0191074609401856
  Si  0.0251843107686769 -0.1931854185213621 -0.4764925320598144
  Si -0.2179157142313232 -0.0644453765213624  0.4559074639401854
  Si -0.4748156662313229  0.4355545934786376 -0.0440925360598146
  Si  0.2820843157686767  0.3068145514786376  0.0235074759401856
  Si -0.1673256752313231 -0.1019654275213624 -0.3318525550598145
  Si  0.4745942947686766  0.3980345724786376  0.1681474449401859
  Si  0.3326743247686766  0.3443346024786376 -0.1887325050598143
  Si  0.0910043117686765 -0.1910354195213622  0.1722774509401857
  Si -0.2837356922313232 -0.0665954355213625 -0.1928625110598143
  Si -0.4089956882313231  0.4334045944786376  0.3071374889401855
  Si  0.2162643077686767  0.3089646104786374 -0.3277225490598145
  Si  0.3275243047686768  0.0432245734786376  0.1755374669401857
  Si  0.4797443147686771 -0.3008553985213622 -0.1961225270598146
  Si -0.1724756952313233  0.1991446014786376  0.3038774729401854
  Si -0.0202556852313234 -0.4567754265213624 -0.3244625330598145
  Si  0.2164143027686766  0.0024845604786377  0.3213474749401858
  Si -0.4091457132313231 -0.2601153855213623 -0.3419325350598145
  Si -0.2835856672313232  0.2398846144786377  0.1580674649401856
  Si  0.0908543167686766 -0.4975154395213621 -0.1786525250598143
  Si  0.1767542957686767  0.0401045684786376 -0.4642125290598145
  Si -0.3694856762313232 -0.2977353935213622  0.4436274769401855
  Si -0.3232457042313232  0.2022646064786375 -0.0563725230598144
  Si  0.1305143237686767 -0.4598954315213621  0.0357874629401855
  Si  0.0223043117686767  0.0412545804786377 -0.4716125320598143
  Si -0.2150356772313231 -0.2988854055213623  0.4510274529401856
  Si -0.4776957032313232  0.2011145944786377 -0.0489725170598145
  Si  0.2849643227686768 -0.4587454195213622  0.0283874869401857
  Si  0.4763143057686766  0.2403646114786377  0.1672774549401859
  Si  0.3309543137686765 -0.4979954365213621 -0.1878625150598143
  Si  0.0980943147686767  0.0518845914786377  0.1918174629401856
  Si -0.2908257242313232 -0.3095154165213623 -0.2124025230598143
  Si -0.4019056562313232  0.1904845834786377  0.2875974769401858
  Si  0.2091743047686766 -0.4481154085213623 -0.3081825370598147
  O   0.2815343137686767  0.4299845884786377  0.2703074809401854
  O  -0.4742656942313230  0.3123846054786377 -0.2908925410598144
  O  -0.2184656862313232 -0.1876154245213622  0.2091074589401858
  O   0.0257343057686765 -0.0700154305213623 -0.2296925190598144
  O   0.2142343227686765  0.4373845904786375  0.4333074689401854
  O  -0.4069657322313231  0.3049845694786377 -0.4538925290598146
  O  -0.2857656482313232 -0.1950154305213623  0.0461074709401856
  O   0.0930342967686767 -0.0626153945213623 -0.0666925310598143
  O   0.1054343137686768  0.4183845894786375 -0.4637925290598144
  O  -0.2981656792313231  0.3239845634786376  0.4432074429401855
  O  -0.3945657012313231 -0.1760154065213624 -0.0567925270598144
  O   0.2018343207686764 -0.0816153885213624  0.0362074969401855
  O   0.0068343137686768  0.4382845904786379  0.4113074539401855
  O  -0.1995657082313234  0.3040845994786376 -0.4318925290598143
  O  -0.4931656722313229 -0.1959154005213624  0.0681074859401856
  O   0.3004342917686768 -0.0617154245213622 -0.0886925460598145
  O   0.0266343127686767  0.4154845884786375  0.2204074859401856
  O  -0.2193657162313234  0.3268845674786376 -0.2409925460598145
  O  -0.4733656642313230 -0.1731154025213624  0.2590074539401854
  O   0.2806343137686765 -0.0845153925213624 -0.2795925140598146
  O   0.1519343107686765  0.4188845864786377  0.2649074789401853
  O  -0.3446657062313232  0.3234845994786377 -0.2854925390598146
  O  -0.3480656742313232 -0.1765154005213623  0.2145074609401853
  O   0.1553342937686767 -0.0811154245213626 -0.2350925210598147
  O   0.2805342967686767  0.2178846004786377  0.2608074549401855
  O  -0.4732656482313230 -0.4755154255213623 -0.2813925150598144
  O  -0.2194657322313234  0.0244845744786375  0.2186074849401855
  O   0.0267343227686767 -0.2821153995213623 -0.2391925450598144
  O   0.2086343167686767  0.2042846084786378  0.4172074799401857
  O  -0.4013656972313229 -0.4619154335213622 -0.4377925320598146
  O  -0.2913656832313233  0.0380845664786377  0.0622074599401856
  O   0.0986343027686768 -0.2957153915213622 -0.0827925200598145
  O   0.0996343047686765  0.2153846024786377 -0.4786925320598143
  O  -0.2923656702313231 -0.4730154275213623  0.4581074719401856
  O  -0.4003657102313231  0.0269845724786377 -0.0418925280598144
  O   0.2076343297686766 -0.2846153975213623  0.0213074679401855
  O  -0.0078656892313234  0.2022845744786377  0.4144074919401856
  O  -0.1848657132313232 -0.4599153995213623 -0.4349925290598144
  O   0.4921343327686772  0.0400846004786377  0.0650074479401856
  O   0.3151343167686768 -0.2977154255213623 -0.0855925380598144
  O   0.0244343127686768  0.2200846074786375  0.2267074589401858
  O  -0.2171657082313231 -0.4777154325213622 -0.2472925190598145
  O  -0.4755656722313231  0.0222845674786376  0.2527074809401859
  O   0.2828342917686767 -0.2799153925213622 -0.2732925410598148
  O   0.1519343107686765  0.2335845824786378  0.2473074789401855
  O  -0.3446657062313232 -0.4912154075213624 -0.2678925390598147
  O  -0.3480656742313232  0.0087845924786376  0.2321074609401856
  O   0.1553342937686767 -0.2664154175213622 -0.2526925210598145
  O   0.2225342987686766  0.3226845864786376  0.3407074809401855
  O  -0.4152656792313232  0.4196845884786377 -0.3612925410598144
  O  -0.2774657012313229 -0.0803154115213625  0.1387074589401855
  O   0.0847343207686766 -0.1773154135213622 -0.1592925190598145
  O  -0.0182656872313232  0.3202846054786377  0.3368074889401854
  O  -0.1744657162313233  0.4220845884786377 -0.3573925490598144
  O   0.4817343357686767 -0.0779154305213623  0.1426074509401858
  O   0.3255343137686767 -0.1797154245213623 -0.1631925110598144
  O   0.3181343077686765  0.4964845924786379  0.1126074789401858
  O   0.4891343117686769  0.2458845974786374 -0.1331925390598143
  O  -0.1818656922313232 -0.2541154025213623  0.3668074609401856
  O  -0.0108656882313234 -0.0035154225213623 -0.3873925210598146
  O   0.2959343197686767  0.3670845624786376  0.1005074979401856
  O  -0.4886657002313231  0.3752845874786377 -0.1210925580598143
  O  -0.2040656802313232 -0.1247153875213625  0.3789074419401857
  O   0.0113342997686767 -0.1329154075213623 -0.3994925020598146
  O   0.3058343227686768  0.2371845844786376  0.0711074469401853
  O  -0.4985656742313229 -0.4948154095213621 -0.0916925070598145
  O  -0.1941657062313231  0.0051845904786376  0.4083074929401855
  O   0.0014342967686769 -0.2628154155213622 -0.4288925530598144
  O   0.1039343027686767 -0.4990154055213625  0.1314074989401859
  O  -0.2966656682313231  0.2413845654786377 -0.1519925590598143
  O  -0.3960657122313232 -0.2586154345213623  0.3480074409401856
  O   0.2033343317686767  0.0009846094786377 -0.3685925010598145
  O   0.1135343167686766  0.3737845874786379  0.0889074799401856
  O  -0.3062657122313232  0.3685845734786377 -0.1094925400598143
  O  -0.3864656682313229 -0.1314154265213623  0.3905074599401854
  O   0.1937342877686766 -0.1262153985213623 -0.4110925200598146
  O   0.0984343137686765  0.2436845894786377  0.0709074739401854
  O  -0.2911657092313232  0.4986845854786376 -0.0914925340598145
  O  -0.4015656712313233 -0.0013154145213623  0.4085074659401855
  O   0.2088342907686768 -0.2563154105213623 -0.4290925260598145
  O  -0.0931656902313231  0.4226845874786376  0.2856074569401858
  O  -0.0995656852313234  0.3196845654786376 -0.3061925170598143
  O   0.4068343047686766 -0.1803154055213623  0.1938074829401857
  O   0.4004343147686765 -0.0773153905213624 -0.2143925430598143
  O  -0.0986657142313231  0.2236846084786377  0.2799074649401856
  O  -0.0940656902313233 -0.4813154335213623 -0.3004925250598144
  O   0.4013343157686766  0.0186845664786377  0.1995074749401855
  O   0.4059343337686767 -0.2763153915213623 -0.2200925350598144
  O   0.3275343177686766  0.1210845704786376  0.1484074589401853
  O   0.4797343017686769 -0.3787153955213622 -0.1689925190598143
  O  -0.1724656822313231  0.1212846044786375  0.3310074809401854
  O  -0.0202656982313232 -0.3789154295213621 -0.3515925410598144
  O   0.1023343057686765  0.1276845934786377  0.1541074509401859
  O  -0.2950657012313234 -0.3853154185213624 -0.1746925110598143
  O  -0.3976656792313231  0.1146845814786377  0.3253074889401856
  O   0.2049342987686768 -0.3723154065213623 -0.3458925490598145
  O   0.1858343187686765  0.1186845894786376 -0.4426925330598146
  O  -0.3785656692313232 -0.3763154145213623  0.4221074579401855
  O  -0.3141657112313230  0.1236845854786377 -0.0778925420598144
  O   0.1214343007686766 -0.3813154105213624  0.0573074819401855
  O   0.0137343107686767  0.1185845734786377 -0.4405925270598146
  O  -0.2064657212313231 -0.3762153985213624  0.4200074669401856
  O  -0.4862656592313232  0.1237846014786377 -0.0799925330598144
  O   0.2935343087686768 -0.3814154265213623  0.0594074729401854
  O   0.2835343177686768 -0.1785154045213622  0.2489074469401855
  O  -0.4762656692313231 -0.0791153905213626 -0.2694925070598146
  O  -0.2164657112313233  0.4208845794786376  0.2305074929401853
  O   0.0237343017686769  0.3214845654786378 -0.2510925530598144
  O   0.2179343107686765 -0.1808153985213623  0.4143074749401855
  O  -0.4106656912313231 -0.0768154265213623 -0.4348925280598146
  O  -0.2820656892313232  0.4231845734786377  0.0651074649401855
  O   0.0893343087686766  0.3191846014786377 -0.0856925250598144
  O   0.1027343127686766 -0.1970154045213623  0.4991074699401853
  O  -0.2954657082313232 -0.0606154205213623  0.4803074599401855
  O  -0.3972656722313233  0.4393845794786377 -0.0196925400598145
  O   0.2045342917686767  0.3029845954786377 -0.0008925200598144
  O  -0.0151656862313234 -0.1810154025213621  0.4228074549401856
  O  -0.1775656942313233 -0.0766154525213623 -0.4433925300598144
  O   0.4848343137686768  0.4233845774786376  0.0566074849401854
  O   0.3224343057686765  0.3189846274786377 -0.0771925450598143
  O   0.0242343097686766 -0.1937154235213623  0.2370074989401853
  O  -0.2169656752313234 -0.0639153715213623 -0.2575925590598147
  O  -0.4757657052313229  0.4360845984786376  0.2424074409401857
  O   0.2830343247686768  0.3062845464786377 -0.2629925010598146
  O   0.1541343037686765 -0.1887153985213623  0.2446074489401857
  O  -0.3468656542313231 -0.0689154265213623 -0.2651925090598146
  O  -0.3458657262313233  0.4310845734786377  0.2348074909401856
  O   0.1531343157686766  0.3112846014786377 -0.2553925510598145
  O   0.2833343147686768  0.0301845664786375  0.2728074789401853
  O  -0.4760656952313231 -0.2878153915213622 -0.2933925390598144
  O  -0.2166656852313231  0.2121846084786378  0.2066074609401855
  O   0.0239343047686766 -0.4698154335213623 -0.2271925210598147
  O   0.2184343037686768  0.0170845984786376  0.4389074449401855
  O  -0.4111657142313231 -0.2747154235213622 -0.4594925310598146
  O  -0.2815656662313230  0.2252845764786376  0.0405074949401856
  O   0.0888343157686766 -0.4829154015213623 -0.0610925260598145
  O   0.0997343067686768  0.0224846004786374 -0.4832925290598142
  O  -0.2924656872313233 -0.2801154255213622  0.4627074599401856
  O  -0.4002656932313230  0.2198845744786378 -0.0372925400598143
  O   0.2075343127686768 -0.4775153995213621  0.0167074799401856
  O  -0.0141656922313231  0.0270845894786376  0.4244074819401855
  O  -0.1785656812313230 -0.2847154145213622 -0.4449925270598145
  O   0.4858343007686767  0.2152845854786376  0.0550074579401854
  O   0.3214343187686767 -0.4729154105213622 -0.0755925180598145
  O   0.0268343087686766  0.0389845964786377  0.2393074629401857
  O  -0.2195656892313232 -0.2966154215213623 -0.2598925230598148
  O  -0.4731656912313231  0.2033845784786376  0.2401074769401856
  O   0.2804343107686769 -0.4610154035213623 -0.2606925370598145
  O   0.1533343047686767  0.0405845644786376  0.2753074769401855
  O  -0.3460657002313232 -0.2982153895213621 -0.2958925370598146
  O  -0.3466656802313233  0.2017846104786376  0.2041074629401855
  O   0.1539342997686767 -0.4594154355213623 -0.2246925230598147
  O   0.2090343237686765 -0.0758154395213624  0.2984074949401855
  O  -0.4017657042313231 -0.1818153855213622 -0.3189925550598147
  O  -0.2909656762313232  0.3181846144786376  0.1810074449401855
  O   0.0982342957686767  0.4241845604786376 -0.2015925050598144
  O  -0.0112656872313233 -0.0769153835213623  0.3063074949401858
  O  -0.1814656852313233 -0.1807154415213623 -0.3268925550598145
  O   0.4887343047686767  0.3192845584786377  0.1731074449401857
  O   0.3185343147686768  0.4230846164786377 -0.1936925050598144
  O   0.3222343027686767 -0.2574154135213622  0.1012074949401855
  O   0.4850343467686771 -0.0002154115213624 -0.1217925550598145
  O  -0.1777657272313231  0.4997845884786378  0.3782074449401855
  O  -0.0149656832313232  0.2425845864786376 -0.3987925050598144
  O   0.3190343077686766 -0.1273154025213623  0.0762074589401855
  O   0.4882342817686771 -0.1303154225213623 -0.0967925190598144
  O  -0.1809656622313234  0.3696845774786377  0.4032074809401857
  O  -0.0117656882313231  0.3726845974786377 -0.4237925410598145
  O   0.2974342997686766  0.0031846164786375  0.0810074809401855
  O  -0.4901657102313230 -0.2608154415213624 -0.1015925410598144
  O  -0.2025656702313232  0.2391845584786376  0.3984074589401855
  O   0.0098343197686767 -0.4968153835213622 -0.4189925190598143
  O   0.0936343077686765 -0.2577154045213623  0.1050074699401855
  O  -0.2863656882313231  0.0000845794786377 -0.1255925300598144
  O  -0.4063656922313231 -0.4999154205213623  0.3744074699401855
  O   0.2136343117686766  0.2422845954786377 -0.3949925300598145
  O   0.0898343027686765 -0.1256154175213624  0.1034074429401854
  O  -0.2825657132313232 -0.1320154075213624 -0.1239925030598143
  O  -0.4101656672313230  0.3679845924786376  0.3760074969401856
  O   0.2174343167686767  0.3743845824786378 -0.3965925570598145
  O   0.1110343037686767  0.0037845964786376  0.0983074899401857
  O  -0.3037656542313231 -0.2614154215213622 -0.1188925500598143
  O  -0.3889657262313230  0.2385845784786378  0.3811074499401854
  O   0.1962343157686767 -0.4962154035213624 -0.4016925100598145
  O  -0.1002656822313231 -0.1712154145213622  0.2793074849401851
  O  -0.0924656902313230 -0.0864154105213624 -0.2998925450598144
  O   0.3997343177686765  0.4135845894786376  0.2001074549401855
  O   0.4075343017686767  0.3287845854786375 -0.2206925150598145
  O  -0.0976656672313232  0.0192846064786376  0.2777074579401856
  O  -0.0950656902313230 -0.2769154315213622 -0.2982925180598146
  O   0.4023343027686765  0.2230845684786376  0.2017074819401856
  O   0.4049342867686766 -0.4807153935213622 -0.2222925420598145
  O   0.3516464918181792  0.3271509748208827 -0.4987442285337922
  O   0.3294909988256284 -0.0501118685966062 -0.4163609920058109
  O  -0.1235185413139036 -0.2690368293889416 -0.1503915018754045
  O  -0.0673531659823409 -0.3124186172309573  0.2400615143458437
  O  -0.0340743404159882  0.1927413349894562  0.1031678165195177
  O   0.0166288839815993  0.0005077386774121  0.0144500143152922
  Al  0.2173143027686767  0.4020845874786376  0.3261274699401855
  Al -0.2919256682313231  0.3153345584786376 -0.1969825030598145
  Al -0.0217856762313233 -0.3002954125213624 -0.3295925260598144
  Al  0.1768843237686765  0.1952846054786377 -0.4743225310598144
  Al -0.3193256852313233  0.4322945774786376 -0.0396925210598145
  Al -0.0254056902313231 -0.1556653975213624  0.3112674949401856
  Al -0.0236856942313233  0.0020045634786376  0.3121374849401856
  Al -0.1690456862313232 -0.2596353885213623 -0.3327225450598145
  H   0.3034392349888110  0.4617243561973194  0.3157022511708784
  H  -0.2765347481574921  0.2092801939188646 -0.1986605377839668
  H  -0.0180157684948781 -0.3800479005377719 -0.4247989396849087
  H   0.2551176911681629  0.2183574520119460 -0.3803298541358168
  H  -0.3978703312489723  0.4563153172529639  0.0491467634058229
  H   0.0357863885169480 -0.0772164263443182  0.2871926140797088
  H  -0.0984388299375021  0.0125464981778707  0.2051008028490711
  H  -0.1913201909110252 -0.3294096174455400 -0.2253823762655711
  H   0.4625906733587745  0.3775764577540726  0.4158633415368155
  H   0.4867257373429950  0.3190816756267680 -0.4911615291177449
  H  -0.4996809795152610  0.4057778217140418 -0.4715783963946056
  H   0.3599062171769737  0.4539725281620775  0.4476718059198648
  H   0.3156725064693251  0.4453133483226748 -0.4387410263146521
  H   0.3953757028095465  0.4835768162872980 -0.4389650142644357
  H   0.3698208154159602  0.2827957793866553 -0.4886797641227121
  H   0.4009550205248030  0.3658608251442725 -0.3751679899568418
  H   0.3347037043337495 -0.0346506098125201  0.3832239217696877
  H   0.3910173141044077 -0.0990878201713574  0.4174796524362663
  H   0.4218305953463038 -0.0208640957984396  0.3757285171950067
  H   0.3209711769519284  0.0690258499411751  0.4997343919389545
  H   0.3676478773020069  0.0726440765818794 -0.3882990758872840
  H   0.4078152764848650  0.0848268859879477  0.4949570042506974
  H   0.3364348433683902 -0.0980772945393780 -0.4179285708858307
  H   0.4297456772650481 -0.0299941441011535 -0.4376560986352696
  H  -0.0898698075022941 -0.2346373047217110 -0.1479081887989371
  H  -0.1563237655179087 -0.2565676127918135 -0.1013451610102287
  H  -0.0296284342444469 -0.2851856477066226  0.2580807227511751
  H  -0.1044151034933049 -0.2819850542915459  0.2347009235322536
  H  -0.0504325640263193  0.1639523320494861  0.1555688047352579
  H   0.0102841013264628  0.1773906530294170  0.0886165987311863
  H  -0.0103395837463998  0.0383252869196825 -0.0049505535655166
  H  -0.0062893002351995 -0.0388330255970947 -0.0094994607497756
  C   0.3966417143828824  0.3750766134713519 -0.4561555016648017
  C   0.4655938974023230  0.3692107425022506  0.4965770857394625
  C   0.3651488168882049  0.4437601262192758 -0.4723430763446224
  C   0.3814631307219862 -0.0187455461151957 -0.4728107378316908
  C   0.3823903495376504 -0.0446856214006544  0.4196014345233186
  C   0.3689087945275656  0.0565581473138533 -0.4663755397025178
