_cell_length_a 20.1071
_cell_length_b 19.8791
_cell_length_c 13.3691
_cell_angle_alpha 90.
_cell_angle_beta  90.
_cell_angle_gamma 90.
loop_
_atom_site_type_symbol
_atom_site_fract_x
_atom_site_fract_y
_atom_site_fract_z
  Si  0.4474316832133788 -0.3199414978872070  0.3030224445017091
  Si -0.3936883207866210 -0.4308614728872071 -0.0571776034982909
  Si -0.0525683167866210  0.0691384971127931  0.4428223965017090
  Si  0.1063116792133789  0.1800584791127928 -0.1969775554982910
  Si -0.2868083117866209 -0.4063014988872071 -0.2134975794982910
  Si -0.1594483257866209  0.0936985011127931  0.2865024205017090
  Si  0.2131916882133786  0.1554985051127928 -0.0406575794982911
  Si  0.3064716752133789 -0.3129114958872071 -0.3236175814982911
  Si -0.2527283427866210 -0.4378914828872071 -0.4305375814982910
  Si -0.1935282947866212  0.0621085171127931  0.0694624185017089
  Si  0.2472716872133789  0.1870884891127926  0.1763824225017090
  Si  0.1508216782133789 -0.3130714968872070 -0.3403375784982909
  Si -0.0970783237866209 -0.4377315048872070 -0.4138175844982909
  Si -0.3491783137866208  0.0622684951127930  0.0861824155017090
  Si  0.4029216762133787  0.1869285111127930  0.1596624255017087
  Si  0.1036516802133787 -0.3473614978872071  0.4469524025017091
  Si -0.0499083397866211 -0.4034414888872071 -0.2011075614982911
  Si -0.3963482977866211  0.0965585111127929  0.2988924385017093
  Si  0.4500916902133789  0.1526384951127928 -0.0530475974982910
  Si  0.2224316742133789 -0.3195514978872071  0.3096123935017092
  Si -0.2775683407866210  0.0687485041127931  0.4362324475017090
  Si  0.3313117032133789  0.1804485321127929 -0.1903876064982910
  Si  0.4522916672133789  0.4531185031127929  0.3036224245017089
  Si -0.3985483047866208 -0.2039214968872070 -0.0577775834982910
  Si -0.0477083327866213  0.2960785031127928  0.4422224165017090
  Si  0.3391216692133789  0.4980685111127929  0.4490424395017092
  Si -0.2853783367866209 -0.2488715048872070 -0.2031975984982911
  Si -0.1608783007866210  0.2511284951127930  0.2968024015017092
  Si  0.2146216932133788 -0.0019314888872071 -0.0509575604982910
  Si -0.2463783027866210 -0.1995015148872070 -0.4130475524982911
  Si -0.1998783347866210  0.3004984851127929  0.0869524185017089
  Si  0.2536216672133786 -0.0513014788872070  0.1588923935017090
  Si  0.1458216832133790  0.4482585191127930 -0.3427175804982910
  Si -0.0920783277866210 -0.1990615128872071 -0.4114375714982909
  Si -0.3541783097866211  0.3009384871127928  0.0885624285017090
  Si  0.4079216722133792 -0.0517414808872070  0.1572824125017087
  Si  0.0984316842133788  0.4952085021127930  0.4477624295017090
  Si -0.0446883437866213 -0.2460114958872071 -0.2019175884982910
  Si -0.4015682937866208  0.2539885041127929  0.2980824115017091
  Si  0.4553116862133788 -0.0047914978872070 -0.0522375704982910
  Si  0.2176616792133785  0.4593185191127929  0.3088424205017093
  Si -0.1639183167866212 -0.2101215128872069 -0.0629975794982909
  Si -0.2823383207866210  0.2898784871127928  0.4370024205017091
  Si  0.3360816832133788 -0.0406814808872069 -0.1911575794982912
  Si  0.4552416802133789  0.0675685111127929  0.2883624435017093
  Si -0.4014983177866209  0.1816284661127929 -0.0425176024982910
  Si -0.0447583197866213 -0.3183715048872071  0.4574823975017090
  Si  0.0985016822133788 -0.4324314598872070 -0.2116375564982912
  Si  0.3392416832133788  0.0976485011127930  0.4347824455017090
  Si -0.2854983207866209  0.1515485051127929 -0.1889376044982912
  Si -0.1607583167866210 -0.3484514948872071  0.3110623955017093
  Si  0.2145016792133787 -0.4023514988872070 -0.0652175544982912
  Si  0.3039116862133788  0.0634885131127929 -0.3476775794982911
  Si -0.2501683237866213  0.1857085231127928 -0.4064775704982910
  Si  0.2498316762133785 -0.4365115168872071  0.1523224115017090
  Si  0.1484216822133790  0.0602284971127931 -0.3432775814982909
  Si -0.0946783427866211  0.1889685391127929 -0.4108775854982911
  Si -0.3515782947866208 -0.3110314908872071  0.0891224145017088
  Si  0.4053216872133789 -0.4397715328872072  0.1567224265017091
  Si -0.0440883037866209  0.1514484881127929 -0.1986376044982912
  Si -0.4021683337866211 -0.3485515118872071  0.3013623955017093
  Si  0.4559116962133788 -0.4022514818872072 -0.0555175544982909
  Si  0.2142416832133787  0.0623784961127931  0.3054924015017091
  Si -0.1604983207866211  0.1868184801127928 -0.0596475604982909
  Si -0.2857583167866211 -0.3131814898872072  0.4403524395017090
  Si  0.3395016792133789 -0.4376214738872072 -0.1945075984982912
  Si  0.4507616762133790  0.2966384891127929  0.3087524175017091
  Si -0.3970183137866209 -0.0474414828872070 -0.0629075764982912
  Si -0.0492383237866212  0.4525585171127929  0.4370924235017088
  Si  0.1029816862133788 -0.2033615108872071 -0.1912475824982911
  Si  0.3396516742133788  0.2558984761127929  0.4545624255017093
  Si -0.2859083417866211 -0.0067014698872070 -0.2087175844982912
  Si -0.1603482957866212  0.4932985301127930  0.2912824155017091
  Si  0.2140916882133788 -0.2441015238872069 -0.0454375744982909
  Si  0.2999916672133789  0.2935184841127929 -0.3309975784982910
  Si -0.2462483047866210 -0.0443214778872070 -0.4231575724982909
  Si -0.2000083327866212  0.4556785221127928  0.0768424275017089
  Si  0.2537516952133789 -0.2064815158872068  0.1690024135017090
  Si  0.1455416832133789  0.2946684961127930 -0.3383975814982910
  Si -0.0917983057866210 -0.0454714898872071 -0.4157575964982909
  Si -0.3544583317866211  0.4545285101127929  0.0842424335017088
  Si  0.4082016942133790 -0.2053315038872070  0.1616024375017091
  Si -0.4004483227866213  0.4937785271127930  0.3004924055017093
  Si  0.4541916852133787 -0.2445815208872069 -0.0546475644982909
  Si  0.2213316862133789  0.3052985071127929  0.3250324135017090
  Si -0.1675883527866212 -0.0561015008872070 -0.0791875724982909
  Si -0.2786682847866211  0.4438984991127930  0.4208124275017093
  Si  0.3324116762133788 -0.1947014928872071 -0.1749675864982912
  O   0.4047716852133789 -0.3166014958872070  0.4035224315017089
  O  -0.3510283227866210 -0.4342014788872072 -0.1576775904982910
  O  -0.0952283147866211  0.0657984911127931  0.3423224095017092
  O   0.1489716772133786  0.1833984851127930 -0.0964775684982911
  O   0.3374716942133788 -0.3092014938872072 -0.4334775804982910
  O  -0.2837283607866210 -0.4416015148872071 -0.3206775784982911
  O  -0.1625282767866211  0.0583984851127930  0.1793224215017090
  O   0.2162716682133789  0.1907985211127929  0.0665224195017091
  O   0.2286716852133790 -0.3282014948872072 -0.3305775784982909
  O  -0.1749283077866209 -0.4226015208872071 -0.4235776064982910
  O  -0.2713283297866210  0.0773985091127929  0.0764224235017090
  O   0.3250716922133787  0.1717985271127929  0.1694224475017090
  O   0.1300716852133790 -0.3083014938872068 -0.4554775954982910
  O  -0.0763283367866213 -0.4425014848872071 -0.2986775784982910
  O  -0.3699283007866208  0.0574985151127929  0.2013224365017090
  O   0.4236716632133790  0.1916984911127930  0.0445224045017089
  O   0.1498716842133789 -0.3311014958872071  0.3536224365017090
  O  -0.0961283447866213 -0.4197015168872072 -0.1077775954982913
  O  -0.3501282927866209  0.0802985131127929  0.3922224045017089
  O   0.4038716852133788  0.1688985231127929 -0.1463775634982911
  O   0.2751716822133787 -0.3277014978872071  0.3981224295017089
  O  -0.2214283347866210 -0.4231014848872070 -0.1522775884982911
  O  -0.2248283027866212  0.0768985151127930  0.3477224115017088
  O   0.2785716652133789  0.1722984911127927 -0.1018775704982912
  O   0.4037716682133789  0.4712985161127929  0.3940224055017089
  O  -0.3500282767866210 -0.2221015098872070 -0.1481775644982910
  O  -0.0962283607866213  0.2778984901127928  0.3518224355017090
  O   0.1499716942133789 -0.0287014838872071 -0.1059775944982911
  O   0.3318716882133789  0.4576985241127930 -0.4495775694982908
  O  -0.2781283257866209 -0.2085015178872069 -0.3045775814982912
  O  -0.1681283117866212  0.2914984821127929  0.1954224105017090
  O   0.2218716742133790 -0.0423014758872069  0.0504224305017089
  O   0.2228716762133787  0.4687985181127929 -0.3454775814982909
  O  -0.1691282987866211 -0.2196015118872070 -0.4086775774982909
  O  -0.2771283387866210  0.2803984881127930  0.0913224225017090
  O   0.3308717012133788 -0.0312014818872071  0.1545224185017089
  O   0.1153716822133788  0.4556984901127930 -0.4523775574982908
  O  -0.0616283417866211 -0.2065014838872070 -0.3017775784982910
  O  -0.3846282957866207  0.2934985161127930  0.1982223985017091
  O   0.4383716882133790 -0.0443015098872070  0.0476224125017090
  O   0.1476716842133789  0.4734985231127928  0.3599224095017093
  O  -0.0939283367866210 -0.2243015168872069 -0.1140775684982913
  O  -0.3523283007866211  0.2756984831127929  0.3859224315017093
  O   0.4060716632133789 -0.0265014768872069 -0.1400775904982913
  O   0.2751716822133787  0.4869984981127931  0.3805224295017091
  O  -0.2214283347866210 -0.2378014918872071 -0.1346775884982913
  O  -0.2248283027866212  0.2621985081127929  0.3653224115017090
  O   0.2785716652133789 -0.0130015018872069 -0.1194775704982912
  O   0.3457716702133788 -0.4239014978872071  0.4739224315017090
  O  -0.2920283077866211 -0.3269014958872070 -0.2280775904982910
  O  -0.1542283297866209  0.1730985041127928  0.2719224095017089
  O   0.2079716922133787  0.0760985021127931 -0.0260775684982911
  O   0.1049716842133790 -0.4263014788872070  0.4700224395017089
  O  -0.0512283447866211 -0.3245014958872071 -0.2241775984982911
  O  -0.3950282927866210  0.1754984851127930  0.2758224015017092
  O   0.4487716852133788  0.0736984911127929 -0.0299775604982911
  O   0.4413716792133788 -0.2501014918872069  0.2458224295017093
  O  -0.3876283167866210  0.4992985131127927  0.0000224115017091
  O  -0.0586283207866210 -0.0007014868872071 -0.4999775884982908
  O   0.1123716832133787  0.2498984931127930 -0.2541775704982911
  O   0.4191716912133789 -0.3795015218872071  0.2337224485017091
  O  -0.3654283287866211 -0.3713014968872070  0.0121223925017091
  O  -0.0808283087866210  0.1286985281127928 -0.4878776074982908
  O   0.1345716712133789  0.1204985081127929 -0.2662775514982911
  O   0.4290716942133789  0.4905985001127928  0.2043223975017087
  O  -0.3753283027866209 -0.2414014938872069  0.0415224435017089
  O  -0.0709283347866210  0.2585985061127929 -0.4584775564982910
  O   0.1246716682133790 -0.0094014998872070 -0.2956776024982910
  O   0.2271716742133789 -0.2456014898872072  0.2646224495017093
  O  -0.1734282967866211  0.4947984811127930 -0.0187776084982910
  O  -0.2728283407866210 -0.0052015188872070  0.4812223915017091
  O   0.3265717032133790  0.2543985251127929 -0.2353775504982911
  O   0.2367716882133788 -0.3728014968872070  0.2221224305017091
  O  -0.1830283407866210 -0.3780015108872071  0.0237224105017090
  O  -0.2632282967866209  0.1219984891127930 -0.4762775894982911
  O   0.3169716592133788  0.1271985171127930 -0.2778775694982911
  O   0.2216716852133786  0.4970985051127929  0.2041224245017088
  O  -0.1679283377866212 -0.2479014988872070  0.0417224165017089
  O  -0.2783282997866212  0.2520985011127930 -0.4582775834982910
  O   0.3320716622133790 -0.0029014948872070 -0.2958775754982909
  O   0.0300716812133790 -0.3239014968872070  0.4188224075017093
  O   0.0236716862133788 -0.4269015188872072 -0.1729775664982909
  O  -0.4699283237866211  0.0730985101127930  0.3270224335017091
  O  -0.4763283137866212  0.1760985251127929 -0.0811775924982909
  O   0.0245716572133791  0.4770985241127929  0.4131224155017090
  O   0.0291716812133789 -0.2279015178872070 -0.1672775744982911
  O  -0.4754283127866212  0.2720984821127930  0.3327224255017089
  O  -0.4708282947866211 -0.0229014758872070 -0.0868775844982910
  O   0.4507716892133788  0.3744984861127929  0.2816224095017087
  O  -0.3970283267866210 -0.1253014798872070 -0.0357775684982908
  O  -0.0492283107866210  0.3746985201127928  0.4642224315017089
  O   0.1029716732133790 -0.1255015138872069 -0.2183775904982911
  O   0.2255716772133787  0.3810985091127930  0.2873224015017093
  O  -0.1718283297866212 -0.1319015028872070 -0.0414775604982909
  O  -0.2744283077866210  0.3680984971127930  0.4585224395017091
  O   0.3281716702133790 -0.1189014908872070 -0.2126775984982912
  O   0.3090716902133787  0.3720985051127929 -0.3094775824982911
  O  -0.2553282977866211 -0.1229014988872070 -0.4446775914982909
  O  -0.1909283397866210  0.3770985011127929  0.0553224085017089
  O   0.2446716722133788 -0.1279014948872070  0.1905224325017089
  O   0.1369716822133789  0.3719984891127930 -0.3073775764982910
  O  -0.0832283497866210 -0.1228014828872070 -0.4467775824982909
  O  -0.3630282877866211  0.3771985171127930  0.0532224175017091
  O   0.4167716802133790 -0.1280015108872070  0.1926224235017089
  O   0.4067716892133790  0.0748985111127931  0.3821223975017089
  O  -0.3530282977866210  0.1742985251127926 -0.1362775564982911
  O  -0.0932283397866212 -0.3257015048872072  0.3637224435017087
  O   0.1469716732133790 -0.4251015188872069 -0.1178776024982912
  O   0.3411716822133787  0.0725985171127930 -0.4524775744982909
  O  -0.2874283197866210  0.1765984891127930 -0.3016775774982912
  O  -0.1588283177866211 -0.3234015108872070  0.1983224155017089
  O   0.2125716802133788 -0.4274014828872070  0.0475224255017090
  O   0.2259716842133788  0.0563985111127929 -0.3676775794982911
  O  -0.1722283367866211  0.1927984951127930 -0.3864775894982910
  O  -0.2740283007866211 -0.3072015048872070  0.1135224105017089
  O   0.3277716632133789 -0.4436014888872070  0.1323224305017089
  O   0.1080716852133787  0.0723985131127931 -0.4439775944982908
  O  -0.0543283227866212  0.1767984631127930 -0.3101775794982911
  O  -0.3919283147866210 -0.3232015068872071  0.1898224355017089
  O   0.4456716772133788 -0.4276014568872070  0.0560224055017091
  O   0.1474716812133787  0.0596984921127930  0.3702224495017087
  O  -0.0937283037866213  0.1894985441127930 -0.1243776084982912
  O  -0.3525283337866209 -0.3105014858872070  0.3756223915017092
  O   0.4062716962133789 -0.4403015378872071 -0.1297775504982911
  O   0.2773716752133787  0.0646985171127930  0.3778223995017091
  O  -0.2236282827866209  0.1844984891127930 -0.1319775584982911
  O  -0.2226283547866213 -0.3155015108872070  0.3680224415017090
  O   0.2763716872133787 -0.4353014828872070 -0.1221776004982912
  O   0.4065716862133790  0.2835984821127928  0.4060224295017087
  O  -0.3528283237866211 -0.0344014758872069 -0.1601775884982910
  O  -0.0934283137866210  0.4655985241127931  0.3398224115017090
  O   0.1471716762133788 -0.2164015178872070 -0.0939775704982912
  O   0.3416716752133790  0.2704985141127929 -0.4278776044982910
  O  -0.2879283427866210 -0.0213015078872070 -0.3262775804982911
  O  -0.1583282947866210  0.4786984921127929  0.1737224455017090
  O   0.2120716872133788 -0.2295014858872071  0.0721224245017089
  O   0.2229716782133790  0.2758985161127927 -0.3500775784982909
  O  -0.1692283157866212 -0.0267015098872070 -0.4040775894982908
  O  -0.2770283217866210  0.4732984901127930  0.0959224105017091
  O   0.3307716842133789 -0.2241014838872068  0.1499224305017090
  O   0.1090716792133790  0.2804985051127928 -0.4423775674982910
  O  -0.0553283097866209 -0.0313014988872069 -0.3117775764982910
  O  -0.3909283277866211  0.4686985011127928  0.1882224085017088
  O   0.4446716902133789 -0.2195014948872069  0.0576224325017089
  O   0.1500716802133788  0.2923985121127930  0.3725224135017091
  O  -0.0963283177866210 -0.0432015058872071 -0.1266775724982913
  O  -0.3499283197866210  0.4567984941127929  0.3733224275017090
  O   0.4036716822133790 -0.2076014878872070 -0.1274775864982912
  O   0.2765716762133789  0.2939984801127928  0.4085224275017090
  O  -0.2228283287866210 -0.0448014738872069 -0.1626775864982911
  O  -0.2234283087866212  0.4551985261127929  0.3373224135017089
  O   0.2771716712133789 -0.2060015198872069 -0.0914775724982912
  O   0.3322716952133788  0.1775984761127929  0.4316224455017090
  O  -0.2785283327866210  0.0715985301127930 -0.1857776044982912
  O  -0.1677283047866211 -0.4284014698872071  0.3142223955017089
  O   0.2214716672133789 -0.3224015238872070 -0.0683775544982910
  O   0.1119716842133789  0.1764985321127930  0.4395224455017093
  O  -0.0582283137866211  0.0726984741127930 -0.1936776044982912
  O  -0.3880283237866211 -0.4273015258872070  0.3063223955017091
  O   0.4417716862133789 -0.3235014678872071 -0.0604775544982909
  O   0.4454716742133789 -0.0040014978872069  0.2344224455017090
  O  -0.3917282817866208  0.2531985041127929  0.0114223955017089
  O  -0.0545283557866210 -0.2468014958872069 -0.4885776044982910
  O   0.1082716882133789  0.4959985021127929 -0.2655775544982909
  O   0.4422716792133790  0.1260985131127930  0.2094224095017090
  O  -0.3885283467866208  0.1230984931127930  0.0364224315017089
  O  -0.0577282907866213 -0.3769015068872070 -0.4635775684982907
  O   0.1114716832133791 -0.3739014868872069 -0.2905775904982910
  O   0.4206716712133788  0.2565985321127928  0.2142224315017089
  O  -0.3669283387866210 -0.0074015258872071  0.0316224095017090
  O  -0.0793282987866211  0.4925984741127930 -0.4683775904982909
  O   0.1330716912133789 -0.2434014678872069 -0.2857775684982909
  O   0.2168716792133787 -0.0043014888872071  0.2382224205017089
  O  -0.1631283167866211  0.2534984951127930  0.0076224205017090
  O  -0.2831283207866210 -0.2465015048872070 -0.4923775794982909
  O   0.3368716832133789  0.4956985111127929 -0.2617775794982910
  O   0.2130716742133787  0.1277984981127929  0.2366223935017089
  O  -0.1593283417866211  0.1213985081127928  0.0092224475017090
  O  -0.2869282957866209 -0.3786014918872072 -0.4907775524982909
  O   0.3406716882133789 -0.3722015018872070 -0.2633776064982910
  O   0.2342716752133789  0.2571985121127929  0.2315224405017091
  O  -0.1805282827866211 -0.0080015058872069  0.0143224005017090
  O  -0.2657283547866209  0.4919984941127930 -0.4856775994982911
  O   0.3194716872133789 -0.2428014878872071 -0.2684775594982911
  O   0.0229716892133790  0.0821985011127930  0.4125224355017087
  O   0.0307716812133791  0.1669985051127929 -0.1666775944982910
  O  -0.4770283107866212 -0.3330014948872072  0.3333224055017090
  O  -0.4692283267866210 -0.4178014988872072 -0.0874775644982911
  O   0.0255717042133790  0.2726985221127929  0.4109224085017091
  O   0.0281716812133791 -0.0235015158872069 -0.1650775674982912
  O  -0.4744283257866212  0.4764984841127928  0.3349224325017091
  O  -0.4718283417866211 -0.2273014778872069 -0.0890775914982911
  O   0.4748838632628815 -0.4194351095449621 -0.3655292779722687
  O   0.4527283702703306  0.2033020470375490 -0.2831460414442875
  O  -0.0002811698692015 -0.0156229137547861 -0.0171765513138811
  Al  0.3405516742133789 -0.3445014968872070  0.4593424205017091
  Al -0.1686882967866211 -0.4312515258872072 -0.0637675524982911
  Al  0.1014516952133788 -0.0468814968872071 -0.1963775754982910
  Al  0.3001216952133787  0.4486985211127930 -0.3411075804982909
  Al -0.1960883137866211 -0.3142915068872071  0.0935224295017089
  Al  0.0978316812133790  0.0977485181127928  0.4444824455017091
  Al  0.0995516772133789  0.2554184791127929  0.4453524355017091
  Al -0.0458083147866211 -0.0062214728872070 -0.1995075944982911
  H   0.4266766064335132 -0.2848617281685253  0.4489172017324018
  H  -0.1532973767127901  0.4626941095530199 -0.0654455872224434
  H   0.1052216029498241 -0.1266339849036167 -0.2915839891233853
  H   0.3783550626128651  0.4717713676461012 -0.2471149035742934
  H  -0.2746329598042703 -0.2902707671128807  0.1823617139673463
  H   0.1590237599616502  0.1761974892898370  0.4204075646412321
  H   0.0247985415072001  0.2659604138120260  0.3383157534105945
  H  -0.0680828194663230 -0.0759957018113848 -0.0921674257040477
  H  -0.4141719551965233 -0.3690096266117721 -0.4509217079016609
  H  -0.3900368912123028 -0.4275044087390768 -0.3579465785562215
  H  -0.3764436080705590 -0.3408082626518030 -0.3383634458330823
  H   0.4831435886216759 -0.2926135562037673 -0.4191132435186117
  H   0.4389098779140274 -0.3012727360431698 -0.3055260757531286
  H  -0.4813869257457513 -0.2630092680785467 -0.3057500637029122
  H   0.4930581868606624 -0.4637903049791894 -0.3554648135611886
  H  -0.4758076080304947 -0.3807252592215723 -0.2419530393953184
  H   0.4579410757784518  0.2187633058216352 -0.4835611276687888
  H  -0.4857453144508901  0.1543260954627979 -0.4493053970022102
  H  -0.4549320332089939  0.2325498198357157 -0.4910565322434699
  H   0.4442085483966306  0.3224397655753305 -0.3670506574995221
  H   0.4908852487467091  0.3260579922160347 -0.2550841253257605
  H  -0.4689473520704327  0.3382408016221030 -0.3718280451877791
  H   0.4596722148130924  0.1553366210947773 -0.2847136203243072
  H  -0.4470169512902496  0.2234197715330019 -0.3044411480737460
  H   0.0333675639424081  0.0187766109124443 -0.0146932382374135
  H  -0.0330863940732066 -0.0031536971576582  0.0318697895512946
  C  -0.4801209141724153 -0.3715094708944928 -0.3229405511032784
  C  -0.4111687311529749 -0.3773753418635940 -0.3702079636990140
  C   0.4883861883329072 -0.3028259581465689 -0.3391281257830990
  C  -0.4952994978333116  0.2346683695189594 -0.3395957872701673
  C  -0.4943722790176474  0.2087282942335008 -0.4471836149151579
  C   0.4921461659722679  0.3099720629480086 -0.3331605891409942
