_cell_length_a 20.1071
_cell_length_b 19.8791
_cell_length_c 13.3691
_cell_angle_alpha 90.
_cell_angle_beta  90.
_cell_angle_gamma 90.
loop_
_atom_site_type_symbol
_atom_site_fract_x
_atom_site_fract_y
_atom_site_fract_z
  Si  0.3913265463420409 -0.2801589737783203 -0.0744735596029051
  Si -0.4497934576579589 -0.3910789487783203 -0.4346736076029051
  Si -0.1086734536579589  0.1089210212216798  0.0653263923970947
  Si  0.0502065423420410  0.2198410032216795  0.4255264403970947
  Si -0.3429134486579588 -0.3665189747783204  0.4090064163970948
  Si -0.2155534626579588  0.1334810252216798 -0.0909935836029053
  Si  0.1570865513420407  0.1952810292216796 -0.4181535836029053
  Si  0.2503665383420409 -0.2731289717783203  0.2988864143970946
  Si -0.3088334796579589 -0.3981089587783204  0.1919664143970947
  Si -0.2496334316579591  0.1018910412216798 -0.3080335856029053
  Si  0.1911665503420410  0.2268710132216794 -0.2011135816029053
  Si  0.0947165413420410 -0.2732889727783203  0.2821664173970948
  Si -0.1531834606579588 -0.3979489807783203  0.2086864113970947
  Si -0.4052834506579587  0.1020510192216797 -0.2913135886029052
  Si  0.3468165393420407  0.2267110352216797 -0.2178335786029055
  Si  0.0475465433420408 -0.3075789737783203  0.0694563983970948
  Si -0.1060134766579589 -0.3636589647783204  0.4213964343970946
  Si -0.4524534346579589  0.1363410352216796 -0.0786035656029049
  Si  0.3939865533420410  0.1924210192216795 -0.4305436016029052
  Si  0.1663265373420410 -0.2797689737783204 -0.0678836106029050
  Si -0.3336734776579589  0.1085310282216798  0.0587364433970947
  Si  0.2752065663420410  0.2202310562216796  0.4321163893970947
  Si  0.3961865303420410  0.4929010272216796 -0.0738735796029053
  Si -0.4546534416579587 -0.1641389727783202 -0.4352735876029052
  Si -0.1038134696579592  0.3358610272216795  0.0647264123970947
  Si  0.2830165323420410 -0.4621489647783203  0.0715464353970949
  Si -0.3414834736579588 -0.2090889807783203  0.4193063973970946
  Si -0.2169834376579589  0.2909110192216797 -0.0806936026029050
  Si  0.1585165563420409  0.0378510352216797 -0.4284535646029052
  Si -0.3024834396579589 -0.1597189907783203  0.2094564433970947
  Si -0.2559834716579589  0.3402810092216796 -0.2905435856029053
  Si  0.1975165303420407 -0.0115189547783203 -0.2186036106029052
  Si  0.0897165463420411  0.4880410432216797  0.2797864153970947
  Si -0.1481834646579590 -0.1592789887783204  0.2110664243970947
  Si -0.4102834466579590  0.3407210112216795 -0.2889335756029052
  Si  0.3518165353420413 -0.0119589567783203 -0.2202135916029055
  Si  0.0423265473420409 -0.4650089737783203  0.0702664253970948
  Si -0.1007934806579592 -0.2062289717783203  0.4205864073970947
  Si -0.4576734306579587  0.2937710282216797 -0.0794135926029052
  Si  0.3992065493420409  0.0349910262216797 -0.4297335746029052
  Si  0.1615565423420406  0.4991010432216795 -0.0686535836029050
  Si -0.2200234536579591 -0.1703389887783202 -0.4404935836029051
  Si -0.3384434576579589  0.3296610112216796  0.0595064163970948
  Si  0.2799765463420409 -0.0008989567783202  0.4313464163970944
  Si  0.3991365433420410  0.1073510352216797 -0.0891335606029049
  Si -0.4576034546579588  0.2214109902216796 -0.4200136066029052
  Si -0.1008634566579592 -0.2785889807783204  0.0799863933970947
  Si  0.0423965453420410 -0.3926489357783203  0.4108664393970945
  Si  0.2831365463420409  0.1374310252216797  0.0572864413970948
  Si -0.3416034576579587  0.1913310292216797  0.4335663913970945
  Si -0.2168634536579588 -0.3086689707783203 -0.0664336086029049
  Si  0.1583965423420408 -0.3625689747783203 -0.4427135586029055
  Si  0.2478065493420409  0.1032710372216796  0.2748264163970946
  Si -0.3062734606579591  0.2254910472216796  0.2160264253970947
  Si  0.1937265393420406 -0.3967289927783204 -0.2251735926029053
  Si  0.0923165453420411  0.1000110212216798  0.2792264143970948
  Si -0.1507834796579589  0.2287510632216796  0.2116264103970946
  Si -0.4076834316579587 -0.2712489667783204 -0.2883735896029054
  Si  0.3492165503420410 -0.3999890087783204 -0.2207735776029051
  Si -0.1001934406579588  0.1912310122216796  0.4238663913970945
  Si -0.4582734706579590 -0.3087689877783204 -0.0761336086029050
  Si  0.3998065593420409 -0.3624689577783204 -0.4330135586029051
  Si  0.1581365463420407  0.1021610202216798 -0.0720036026029052
  Si -0.2166034576579590  0.2266010042216795 -0.4371435646029051
  Si -0.3418634536579589 -0.2733989657783205  0.0628564353970948
  Si  0.2833965423420410 -0.3978389497783206  0.4279963973970945
  Si  0.3946565393420411  0.3364210132216796 -0.0687435866029052
  Si -0.4531234506579587 -0.0076589587783202 -0.4404035806029054
  Si -0.1053434606579591  0.4923410412216795  0.0595964193970946
  Si  0.0468765493420409 -0.1635789867783204  0.4312564133970946
  Si  0.2835465373420409  0.2956810002216796  0.0770664213970951
  Si -0.3420134786579589  0.0330810542216797  0.4137864113970945
  Si -0.2164534326579590 -0.4669189457783203 -0.0862135886029052
  Si  0.1579865513420408 -0.2043189997783201 -0.4229335786029051
  Si  0.2438865303420410  0.3333010082216796  0.2915064173970947
  Si -0.3023534416579590 -0.0045389537783203  0.1993464233970947
  Si -0.2561134696579590  0.4954610462216795 -0.3006535766029053
  Si  0.1976465583420410 -0.1666989917783201 -0.2084935906029053
  Si  0.0894365463420410  0.3344510202216797  0.2841064143970948
  Si -0.1479034426579589 -0.0056889657783203  0.2067463993970948
  Si -0.4105634686579590  0.4943110342216797 -0.2932535706029054
  Si  0.3520965573420410 -0.1655489797783203 -0.2158935666029052
  Si -0.4565534596579592 -0.4664389487783203 -0.0770035986029049
  Si  0.3980865483420407 -0.2047989967783201 -0.4321435686029051
  Si  0.1652265493420410  0.3450810312216796 -0.0524635906029052
  Si -0.2236934896579590 -0.0163189767783203 -0.4566835766029051
  Si -0.3347734216579590  0.4836810232216797  0.0433164233970951
  Si  0.2763065393420409 -0.1549189687783203  0.4475364093970944
  O   0.3486665483420410 -0.2768189717783203  0.0260264273970947
  O  -0.4071334596579588 -0.3944189547783203  0.4648264053970947
  O  -0.1513334516579590  0.1055810152216798 -0.0351735946029050
  O   0.0928665403420407  0.2231810092216797 -0.4739735726029053
  O   0.2813665573420409 -0.2694189697783205  0.1890264153970946
  O  -0.3398334976579588 -0.4018189907783202  0.3018264173970946
  O  -0.2186334136579590  0.0981810092216797 -0.1981735826029052
  O   0.1601665313420410  0.2305810452216796 -0.3109735846029051
  O   0.1725665483420411 -0.2884189707783205  0.2919264173970948
  O  -0.2310334446579588 -0.3828189967783204  0.1989263893970947
  O  -0.3274334666579589  0.1171810332216796 -0.3010735806029052
  O   0.2689665553420407  0.2115810512216796 -0.2080735566029053
  O   0.0739665483420411 -0.2685189697783201  0.1670264003970947
  O  -0.1324334736579591 -0.4027189607783204  0.3238264173970948
  O  -0.4260334376579587  0.0972810392216796 -0.1761735676029053
  O   0.3675665263420410  0.2314810152216797 -0.3329735996029053
  O   0.0937665473420410 -0.2913189717783204 -0.0238735676029052
  O  -0.1522334816579592 -0.3799189927783204 -0.4852735996029055
  O  -0.4062334296579588  0.1200810372216796  0.0147264003970946
  O   0.3477665483420408  0.2086810472216796  0.4761264323970946
  O   0.2190665453420408 -0.2879189737783203  0.0206264253970946
  O  -0.2775334716579589 -0.3833189607783203  0.4702264073970946
  O  -0.2809334396579590  0.1166810392216797 -0.0297735926029055
  O   0.2224665283420410  0.2120810152216794 -0.4793735746029054
  O   0.3476665313420410 -0.4889189597783204  0.0165264013970947
  O  -0.4061334136579588 -0.1823189857783203  0.4743264313970947
  O  -0.1523334976579592  0.3176810142216795 -0.0256735686029053
  O   0.0938665573420410  0.0110810402216797 -0.4834735986029053
  O   0.2757665513420410  0.4974810482216798  0.1729264263970949
  O  -0.3342334626579588 -0.1687189937783202  0.3179264143970945
  O  -0.2242334486579591  0.3312810062216797 -0.1820735936029052
  O   0.1657665373420411 -0.0025189517783202 -0.3270735736029053
  O   0.1667665393420407 -0.4914189577783203  0.2770264143970949
  O  -0.2252334356579590 -0.1798189877783203  0.2138264183970948
  O  -0.3332334756579589  0.3201810122216797 -0.2861735816029052
  O   0.2747665643420409  0.0085810422216797 -0.2229735856029054
  O   0.0592665453420409  0.4954810142216796  0.1701264383970948
  O  -0.1177334786579590 -0.1667189597783203  0.3207264173970947
  O  -0.4407334326579585  0.3332810402216797 -0.1792736056029052
  O   0.3822665513420411 -0.0045189857783203 -0.3298735916029052
  O   0.0915665473420410 -0.4867189527783204 -0.0175735946029050
  O  -0.1500334736579589 -0.1845189927783202 -0.4915735726029055
  O  -0.4084334376579589  0.3154810072216796  0.0084264273970950
  O   0.3499665263420410  0.0132810472216798  0.4824264053970944
  O   0.2190665453420408 -0.4732189777783202  0.0030264253970948
  O  -0.2775334716579589 -0.1980189677783204  0.4878264073970944
  O  -0.2809334396579590  0.3019810322216795 -0.0121735926029052
  O   0.2224665283420410  0.0267810222216798 -0.4969735746029054
  O   0.2896665333420409 -0.3841189737783204  0.0964264273970947
  O  -0.3481334446579590 -0.2871189717783202  0.3944264053970947
  O  -0.2103334666579588  0.2128810282216795 -0.1055735946029053
  O   0.1518665553420409  0.1158810262216798 -0.4035735726029053
  O   0.0488665473420411 -0.3865189547783203  0.0925264353970946
  O  -0.1073334816579590 -0.2847189717783203  0.3983263973970946
  O  -0.4511334296579589  0.2152810092216797 -0.1016736026029050
  O   0.3926665483420410  0.1134810152216796 -0.4074735646029053
  O   0.3852665423420408 -0.2103189677783202 -0.1316735746029049
  O  -0.4437334536579588 -0.4609189627783205 -0.3774735926029051
  O  -0.1147334576579589  0.0390810372216797  0.1225264073970948
  O   0.0562665463420409  0.2896810172216797  0.3683264253970945
  O   0.3630665543420410 -0.3397189977783204 -0.1437735556029052
  O  -0.4215334656579589 -0.3315189727783203 -0.3653736116029051
  O  -0.1369334456579589  0.1684810522216795  0.1346263883970948
  O   0.0784665343420410  0.1602810322216797  0.3562264443970946
  O   0.3729665573420410 -0.4696189757783204 -0.1731736066029055
  O  -0.4314334396579587 -0.2016189697783201 -0.3359735606029053
  O  -0.1270334716579588  0.2983810302216796  0.1640264393970947
  O   0.0685665313420411  0.0303810242216798  0.3268263933970947
  O   0.1710665373420410 -0.2058189657783205 -0.1128735546029049
  O  -0.2295334336579589 -0.4654189947783203 -0.3962736126029052
  O  -0.3289334776579589  0.0345810052216797  0.1037263873970948
  O   0.2704665663420410  0.2941810492216796  0.3871264453970946
  O   0.1806665513420409 -0.3330189727783202 -0.1553735736029052
  O  -0.2391334776579589 -0.3382189867783203 -0.3537735936029052
  O  -0.3193334336579587  0.1617810132216797  0.1462264063970946
  O   0.2608665223420409  0.1669810412216797  0.3446264263970946
  O   0.1655665483420407 -0.4631189707783204 -0.1733735796029054
  O  -0.2240334746579590 -0.2081189747783203 -0.3357735876029053
  O  -0.3344334366579590  0.2918810252216797  0.1642264123970947
  O   0.2759665253420411  0.0368810292216797  0.3266264203970948
  O  -0.0260334556579589 -0.2841189727783204  0.0413264033970950
  O  -0.0324334506579591 -0.3871189947783205  0.4495264293970949
  O   0.4739665393420410  0.1128810342216797 -0.0504735706029051
  O   0.4675665493420408  0.2158810492216796 -0.4586735966029051
  O  -0.0315334796579588 -0.4831189517783204  0.0356264113970947
  O  -0.0269334556579590 -0.1881189937783203  0.4552264213970945
  O   0.4684665503420409  0.3118810062216797 -0.0447735786029054
  O   0.4730665683420410  0.0168810482216797 -0.4643735886029052
  O   0.3946665523420409  0.4142810102216796 -0.0958735946029055
  O  -0.4531334636579588 -0.0855189557783202 -0.4132735726029050
  O  -0.1053334476579589  0.4144810442216795  0.0867264273970946
  O   0.0468665363420411 -0.0857189897783202  0.4041264053970946
  O   0.1694665403420408  0.4208810332216797 -0.0901736026029050
  O  -0.2279334666579591 -0.0921189787783203 -0.4189735646029051
  O  -0.3305334446579589  0.4078810212216796  0.0810264353970949
  O   0.2720665333420411 -0.0791189667783203  0.4098263973970945
  O   0.2529665533420408  0.4118810292216796  0.3130264133970946
  O  -0.3114334346579590 -0.0831189747783203  0.1778264043970947
  O  -0.2470334766579589  0.4168810252216797 -0.3221735956029053
  O   0.1885665353420409 -0.0881189707783203 -0.1869735716029053
  O   0.0808665453420409  0.4117810132216797  0.3151264193970947
  O  -0.1393334866579588 -0.0830189587783203  0.1757264133970948
  O  -0.4191334246579590  0.4169810412216796 -0.3242735866029051
  O   0.3606665433420410 -0.0882189867783203 -0.1848735806029054
  O   0.3506665523420411  0.1146810352216798  0.0046263933970946
  O  -0.4091334346579589  0.2140810492216794  0.4862264393970946
  O  -0.1493334766579591 -0.2859189807783205 -0.0137735606029055
  O   0.0908665363420411 -0.3853189947783202 -0.4953736066029054
  O   0.2850665453420408  0.1123810412216797  0.1700264213970948
  O  -0.3435334566579589  0.2163810132216797  0.3208264183970945
  O  -0.2149334546579590 -0.2836189867783203 -0.1791735886029054
  O   0.1564665433420409 -0.3876189587783203 -0.3299735786029052
  O   0.1698665473420409  0.0961810352216796  0.2548264163970946
  O  -0.2283334736579590  0.2325810192216797  0.2360264063970947
  O  -0.3301334376579590 -0.2674189807783203 -0.2639735936029053
  O   0.2716665263420410 -0.4038189647783204 -0.2451735736029053
  O   0.0519665483420408  0.1121810372216798  0.1785264013970949
  O  -0.1104334596579591  0.2165809872216797  0.3123264163970946
  O  -0.4480334516579589 -0.2834189827783204 -0.1876735686029054
  O   0.3895665403420409 -0.3878189327783204 -0.3214735986029051
  O   0.0913665443420408  0.0994810162216797 -0.0072735546029055
  O  -0.1498334406579591  0.2292810682216797  0.4981263873970945
  O  -0.4086334706579587 -0.2707189617783203 -0.0018736126029051
  O   0.3501665593420411 -0.4005190137783203  0.4927264453970946
  O   0.2212665383420408  0.1044810412216797  0.0003263953970948
  O  -0.2797334196579588  0.2242810132216797  0.4905264373970946
  O  -0.2787334916579591 -0.2757189867783203 -0.0094735626029052
  O   0.2202665503420408 -0.3955189587783203 -0.4996736046029054
  O   0.3504665493420410  0.3233810062216795  0.0285264253970945
  O  -0.4089334606579589  0.0053810482216798  0.4623264073970947
  O  -0.1495334506579589 -0.4946189517783202 -0.0376735926029053
  O   0.0910665393420409 -0.1766189937783202 -0.4714735746029055
  O   0.2855665383420411  0.3102810382216796  0.1946263913970947
  O  -0.3440334796579589  0.0184810162216797  0.2962264153970946
  O  -0.2144334316579589 -0.4815189837783204 -0.2037735586029053
  O   0.1559665503420409 -0.1897189617783204 -0.3053735796029053
  O   0.1668665413420411  0.3156810402216794  0.2724264173970949
  O  -0.2253334526579590  0.0130810142216797  0.2184264063970948
  O  -0.3331334586579588 -0.4869189857783203 -0.2815735936029052
  O   0.2746665473420410 -0.1843189597783201 -0.2275735736029052
  O   0.0529665423420411  0.3202810292216796  0.1801264283970947
  O  -0.1114334466579588  0.0084810252216798  0.3107264193970946
  O  -0.4470334646579590 -0.4915189747783205 -0.1892735956029055
  O   0.3885665533420409 -0.1797189707783202 -0.3198735716029052
  O   0.0939665433420409  0.3321810362216797 -0.0049735906029052
  O  -0.1524334546579589 -0.0034189817783203  0.4958264233970944
  O  -0.4060334566579589  0.4965810182216796 -0.0041735766029052
  O   0.3475665453420411 -0.1678189637783203  0.4950264093970945
  O   0.2204665393420410  0.3337810042216796  0.0310264233970947
  O  -0.2789334656579590 -0.0050189497783202  0.4598264093970946
  O  -0.2795334456579590  0.4949810502216795 -0.0401735906029053
  O   0.2210665343420410 -0.1662189957783202 -0.4689735766029054
  O   0.2761665583420408  0.2173810002216796  0.0541264413970947
  O  -0.3346334696579589  0.1113810542216798  0.4367263913970945
  O  -0.2238334416579590 -0.3886189457783205 -0.0632736086029053
  O   0.1653665303420410 -0.2826189997783204 -0.4458735586029052
  O   0.0558665473420410  0.2162810562216797  0.0620264413970950
  O  -0.1143334506579590  0.1124809982216797  0.4288263913970946
  O  -0.4441334606579589 -0.3875190017783203 -0.0711736086029051
  O   0.3856665493420410 -0.2837189437783203 -0.4379735586029052
  O   0.3893665373420410  0.0357810262216798 -0.1430735586029053
  O  -0.4478334186579587  0.2929810282216796 -0.3660736086029053
  O  -0.1106334926579589 -0.2070189717783202  0.1339263913970947
  O   0.0521665513420410 -0.4642189737783204  0.3569264413970948
  O   0.3861665423420410  0.1658810372216797 -0.1680735946029053
  O  -0.4446334836579587  0.1628810172216797 -0.3410735726029053
  O  -0.1138334276579592 -0.3371189827783203  0.1589264273970949
  O   0.0553665463420412 -0.3341189627783203  0.3319264053970947
  O   0.3645665343420409  0.2963810562216795 -0.1632735726029053
  O  -0.4230334756579588  0.0323809982216796 -0.3458735946029052
  O  -0.1354334356579590 -0.4676190017783203  0.1541264053970948
  O   0.0769665543420410 -0.2036189437783202  0.3367264273970949
  O   0.1607665423420408  0.0354810352216797 -0.1392735836029053
  O  -0.2192334536579589  0.2932810192216797 -0.3698735836029052
  O  -0.3392334576579589 -0.2067189807783203  0.1301264163970948
  O   0.2807665463420410 -0.4645189647783203  0.3607264163970946
  O   0.1569665373420408  0.1675810222216796 -0.1408736106029054
  O  -0.2154334786579589  0.1611810322216796 -0.3682735566029052
  O  -0.3430334326579588 -0.3388189677783204  0.1317264433970948
  O   0.2845665513420410 -0.3324189777783202  0.3591263893970947
  O   0.1781665383420410  0.2969810362216796 -0.1459735636029051
  O  -0.2366334196579590  0.0317810182216798 -0.3631736036029052
  O  -0.3218334916579588 -0.4682189817783203  0.1368263963970946
  O   0.2633665503420410 -0.2030189637783204  0.3540264363970946
  O  -0.0331334476579589  0.1219810252216797  0.0350264313970944
  O  -0.0253334556579587  0.2067810292216796  0.4558264013970947
  O   0.4668665523420408 -0.2932189707783204 -0.0441735986029053
  O   0.4746665363420410 -0.3780189747783205 -0.4649735686029053
  O  -0.0305334326579589  0.3124810462216796  0.0334264043970949
  O  -0.0279334556579588  0.0162810082216798  0.4574264283970945
  O   0.4694665373420409 -0.4837189917783205 -0.0425735716029052
  O   0.4720665213420409 -0.1875189537783202 -0.4665735956029053
  O   0.4187787263915436 -0.3796525854360753  0.2569747179231170
  O   0.3966232333989927  0.2430845711464358  0.3393579544510982
  O  -0.0563863067405394  0.0241596103541005 -0.3946725554184953
  O  -0.0002209314089767 -0.0192221774879153 -0.0042195391972470
  Al  0.2844465373420410 -0.3047189727783204  0.0818464163970948
  Al -0.2247934336579590 -0.3914690017783204 -0.4412635566029053
  Al  0.0453465583420409 -0.0070989727783204  0.4261264203970946
  Al  0.2440165583420408  0.4884810452216797  0.2813964153970948
  Al -0.2521934506579591 -0.2745089827783205 -0.2839735746029053
  Al  0.0417265443420411  0.1375310422216796  0.0669864413970949
  Al  0.0434465403420410  0.2952010032216796  0.0678564313970949
  Al -0.1019134516579590  0.0335610512216797  0.4229964013970945
  H   0.3705714695621752 -0.2450792040596386  0.0714211976277876
  H  -0.2094025135841279 -0.4975233663380934 -0.4429415913270576
  H   0.0491164660784862 -0.0868514607947299  0.3309200067720003
  H   0.3222499257415271 -0.4884461082450121  0.3753890923210922
  H  -0.3307380966756081 -0.2504882430039941 -0.1951342901372679
  H   0.1029186230903123  0.2159800133987237  0.0429115605366179
  H  -0.0313065953641378  0.3057429379209127 -0.0391802506940198
  H  -0.1241879563376609 -0.0362131777024981 -0.4696634298086619
  H  -0.4702770920678611 -0.3292271025028854  0.1715822879937247
  H  -0.4461420280836407 -0.3877218846301900  0.2645574173391642
  H  -0.4325487449418969 -0.3010257385429163  0.2841405500623035
  H   0.4270384517503379 -0.2528310320948805  0.2033907523767740
  H   0.3828047410426895 -0.2614902119342832  0.3169779201422571
  H   0.4625079373829108 -0.2232267439696600  0.3167539321924734
  H   0.4369530499893245 -0.4240077808703027  0.2670391823341970
  H   0.4680872550981673 -0.3409427351126855  0.3805509565000673
  H   0.4018359389071139  0.2585458299305219  0.1389428682265970
  H   0.4581495486777720  0.1941086195716845  0.1731985988931754
  H   0.4889628299196682  0.2723323439446024  0.1314474636519158
  H   0.3881034115252927  0.3622222896842172  0.2554533383958637
  H   0.4347801118753711  0.3658405163249214  0.3674198705696252
  H   0.4749475110582294  0.3780233257309897  0.2506759507076066
  H   0.4035670779417545  0.1951191452036640  0.3377903755710785
  H   0.4968779118384125  0.2632022956418886  0.3180628478216397
  H  -0.0227375729289298  0.0585591350213310 -0.3921892423420278
  H  -0.0891915309445445  0.0366288269512285 -0.3456262145533196
  H   0.0375038003289173  0.0080107920364193  0.0137996692080842
  H  -0.0372828689199406  0.0112113854514960 -0.0095801300108372
  C   0.4637739489562467 -0.3317269467856061  0.2995634447921073
  C  -0.4672738680243127 -0.3375928177547074  0.2522960321963716
  C   0.4322810514615693 -0.2630434340376822  0.2833758701122868
  C   0.4485953652953504  0.2744508936278461  0.2829082086252184
  C   0.4495225841110147  0.2485108183423875  0.1753203809802278
  C   0.4360410291009300  0.3497545870568953  0.2893434067543915
