_cell_length_a 20.1071
_cell_length_b 19.8791
_cell_length_c 13.3691
_cell_angle_alpha 90.
_cell_angle_beta  90.
_cell_angle_gamma 90.
loop_
_atom_site_type_symbol
_atom_site_fract_x
_atom_site_fract_y
_atom_site_fract_z
  Si -0.4815336469105225 -0.4726829300771485  0.1491196754129640
  Si -0.3226536509105226  0.4163970949228515 -0.2110803725870360
  Si  0.0184663530894775 -0.0836029350771484  0.2889196274129637
  Si  0.1773463490894776  0.0273170469228514 -0.3508803245870360
  Si -0.2157736419105223  0.4409570689228515 -0.3674003485870361
  Si -0.0884136559105222 -0.0590429310771483  0.1325996514129639
  Si  0.2842263580894772  0.0027570729228514 -0.1945603485870362
  Si  0.3775063450894773 -0.4656529280771484 -0.4775203505870360
  Si -0.1816936729105225  0.4093670849228515  0.4155596494129638
  Si -0.1224936249105224 -0.0906329150771483 -0.0844403505870361
  Si  0.3183063570894775  0.0343470569228512  0.0224796534129636
  Si  0.2218563480894775 -0.4658129290771484 -0.4942403475870361
  Si -0.0260436539105222  0.4095270629228516  0.4322796464129639
  Si -0.2781436439105220 -0.0904729370771484 -0.0677203535870361
  Si  0.4739563460894773  0.0341870789228515  0.0057596564129634
  Si  0.1746863500894773  0.4998970699228515  0.2930496334129636
  Si  0.0211263300894773  0.4438170789228514 -0.3550103305870360
  Si -0.3253136279105224 -0.0561829210771485  0.1449896694129642
  Si -0.4788736399105225 -0.0001029370771486 -0.2069503665870360
  Si  0.2934663440894775 -0.4722929300771486  0.1557096244129641
  Si -0.2065336709105223 -0.0839929280771483  0.2823296784129637
  Si  0.4023463730894776  0.0277070999228515 -0.3442903755870359
  Si -0.4766736629105224  0.3003770709228515  0.1497196554129637
  Si -0.3275136349105220 -0.3566629290771484 -0.2116803525870361
  Si  0.0233263370894772  0.1433370709228514  0.2883196474129635
  Si  0.4101563390894776  0.3453270789228515  0.2951396704129640
  Si -0.2143436669105221 -0.4016129370771484 -0.3571003675870359
  Si -0.0898436309105224  0.0983870629228516  0.1428996324129640
  Si  0.2856563630894773 -0.1546729210771485 -0.2048603295870361
  Si -0.1753436329105224 -0.3522429470771484  0.4330496784129638
  Si -0.1288436649105225  0.1477570529228515 -0.0669503505870364
  Si  0.3246563370894773 -0.2040429110771484  0.0049896244129639
  Si  0.2168563530894776  0.2955170869228516 -0.4966203495870360
  Si -0.0210436579105224 -0.3518029450771485  0.4346596594129639
  Si -0.2831436399105225  0.1481970549228515 -0.0653403405870361
  Si  0.4789563420894777 -0.2044829130771484  0.0033796434129633
  Si  0.1694663540894774  0.3424670699228516  0.2938596604129639
  Si  0.0263463260894772 -0.3987529280771485 -0.3558203575870360
  Si -0.3305336239105220  0.1012470719228515  0.1441796424129640
  Si -0.4736536439105227 -0.1575329300771484 -0.2061403395870360
  Si  0.2886963490894772  0.3065770869228515  0.1549396514129640
  Si -0.0928836469105225 -0.3628629450771483 -0.2169003485870360
  Si -0.2113036509105221  0.1371370549228514  0.2830996514129637
  Si  0.4071163530894774 -0.1934229130771483 -0.3450603485870360
  Si -0.4737236499105226 -0.0851729210771484  0.1344596744129642
  Si -0.3304636479105222  0.0288870339228515 -0.1964203715870360
  Si  0.0262763500894772 -0.4711129370771485  0.3035796284129637
  Si  0.1695363520894775  0.4148271079228516 -0.3655403255870359
  Si  0.4102763530894773 -0.0550929310771484  0.2808796764129640
  Si -0.2144636509105222 -0.0011929270771485 -0.3428403735870360
  Si -0.0897236469105222  0.4988070729228515  0.1571596264129641
  Si  0.2855363490894773  0.4449070689228515 -0.2191203235870362
  Si  0.3749463560894774 -0.0892529190771485  0.4984196514129637
  Si -0.1791336539105228  0.0329670909228513  0.4396196604129638
  Si  0.3208663460894772  0.4107470509228514 -0.0015803575870363
  Si  0.2194563520894777 -0.0925129350771482 -0.4971803505870361
  Si -0.0236436729105225  0.0362271069228515  0.4352196454129637
  Si -0.2805436249105222 -0.4637729230771486 -0.0647803545870362
  Si  0.4763563570894775  0.4074870349228514  0.0028196574129640
  Si  0.0269463660894778 -0.0012929440771485 -0.3525403735870360
  Si -0.3311336639105224  0.4987070559228515  0.1474596264129640
  Si -0.4730536339105225  0.4450070859228514 -0.2094203235870360
  Si  0.2852763530894773 -0.0903629360771483  0.1515896324129640
  Si -0.0894636509105224  0.0340770479228512 -0.2135503295870360
  Si -0.2147236469105222 -0.4659229220771486  0.2864496704129637
  Si  0.4105363490894776  0.4096370939228513 -0.3484103675870360
  Si -0.4782036539105224  0.1438970569228514  0.1548496484129640
  Si -0.3259836439105221 -0.2001829150771484 -0.2168103455870362
  Si  0.0217963460894772  0.2998170849228514  0.2831896544129635
  Si  0.1740163560894774 -0.3561029430771485 -0.3451503515870362
  Si  0.4106863440894775  0.1031570439228515  0.3006596564129638
  Si -0.2148736719105224 -0.1594429020771484 -0.3626203535870360
  Si -0.0893136259105225  0.3405570979228516  0.1373796464129640
  Si  0.2851263580894774 -0.3968429560771483 -0.1993403435870360
  Si  0.3710263370894775  0.1407770519228515 -0.4849003475870361
  Si -0.1752136349105224 -0.1970629100771484  0.4229396584129638
  Si -0.1289736629105225  0.3029370899228514 -0.0770603415870361
  Si  0.3247863650894775 -0.3592229480771483  0.0150996444129639
  Si  0.2165763530894775  0.1419270639228516 -0.4923003505870360
  Si -0.0207636359105223 -0.1982129220771485  0.4303396344129640
  Si -0.2834236619105223  0.3017870779228515 -0.0696603355870364
  Si  0.4792363640894776 -0.3580729360771484  0.0076996684129638
  Si -0.3294136529105227  0.3410370949228516  0.1465896364129642
  Si -0.4747736449105227 -0.3973229530771483 -0.2085503335870360
  Si  0.2923663560894775  0.1525570749228515  0.1711296444129639
  Si -0.0965536829105225 -0.2088429330771484 -0.2330903415870360
  Si -0.2076336149105225  0.2911570669228516  0.2669096584129638
  Si  0.4034463460894772 -0.3474429250771485 -0.3288703555870363
  O   0.4758063550894775 -0.4693429280771483  0.2496196624129637
  O  -0.2799936529105222  0.4130570889228515 -0.3115803595870359
  O  -0.0241936449105227 -0.0869429410771483  0.1884196404129641
  O   0.2200063470894773  0.0306570529228515 -0.2503803375870362
  O   0.4085063640894773 -0.4619429260771486  0.4126196504129637
  O  -0.2126936909105223  0.4056570529228516 -0.4745803475870360
  O  -0.0914936069105226 -0.0943429470771484  0.0254196524129640
  O   0.2873063380894775  0.0380570889228515 -0.0873803495870362
  O   0.2997063550894776 -0.4809429270771486 -0.4844803475870360
  O  -0.1038936379105224  0.4246570469228514  0.4225196244129638
  O  -0.2002936599105223 -0.0753429230771485 -0.0774803455870363
  O   0.3961063620894773  0.0190570949228514  0.0155196784129638
  O   0.2011063550894776 -0.4610429260771482  0.3906196354129636
  O  -0.0052936669105228  0.4047570829228515 -0.4525803475870358
  O  -0.2988936309105221 -0.0952429170771485  0.0474196674129639
  O   0.4947063330894776  0.0389570589228516 -0.1093803645870361
  O   0.2209063540894775 -0.4838429280771486  0.1997196674129640
  O  -0.0250936749105226  0.4275570509228514 -0.2616803645870362
  O  -0.2790936229105223 -0.0724429190771485  0.2383196354129637
  O   0.4749063550894774  0.0161570909228514 -0.3002803325870362
  O   0.3462063520894775 -0.4804429300771484  0.2442196604129635
  O  -0.1503936649105224  0.4241570829228515 -0.3061803575870363
  O  -0.1537936329105227 -0.0758429170771484  0.1938196424129636
  O   0.3496063350894775  0.0195570589228513 -0.2557803395870364
  O   0.4748063380894776  0.3185570839228515  0.2401196364129638
  O  -0.2789936069105221 -0.3748429420771484 -0.3020803335870361
  O  -0.0251936909105226  0.1251570579228514  0.1979196664129639
  O   0.2210063640894772 -0.1814429160771485 -0.2598803635870361
  O   0.4029063580894776  0.3049570919228517  0.3965196614129640
  O  -0.2070936559105221 -0.3612429500771484 -0.4584803505870362
  O  -0.0970936419105226  0.1387570499228516  0.0415196414129639
  O   0.2929063440894776 -0.1950429080771483 -0.1034803385870362
  O   0.2939063460894773  0.3160570859228515 -0.4993803505870361
  O  -0.0980936289105223 -0.3723429440771484  0.4374196534129639
  O  -0.2060936689105224  0.1276570559228515 -0.0625803465870360
  O   0.4019063710894774 -0.1839429140771485  0.0006196494129638
  O   0.1864063520894774  0.3029570579228515  0.3937196734129639
  O   0.0094063280894774 -0.3592429160771484 -0.4556803475870361
  O  -0.3135936259105220  0.1407570839228515  0.0443196294129640
  O  -0.4905936419105224 -0.1970429420771485 -0.1062803565870361
  O   0.2187063540894776  0.3207570909228514  0.2060196404129641
  O  -0.0228936669105224 -0.3770429490771483 -0.2679803375870362
  O  -0.2812936309105223  0.1229570509228515  0.2320196624129641
  O   0.4771063330894775 -0.1792429090771483 -0.2939803595870364
  O   0.3462063520894775  0.3342570659228516  0.2266196604129639
  O  -0.1503936649105224 -0.3905429240771485 -0.2885803575870362
  O  -0.1537936329105227  0.1094570759228515  0.2114196424129638
  O   0.3496063350894775 -0.1657429340771484 -0.2733803395870360
  O   0.4168063400894774  0.4233570699228515  0.3200196624129638
  O  -0.2209936379105226 -0.4796429280771484 -0.3819803595870359
  O  -0.0831936599105223  0.0203570719228514  0.1180196404129639
  O   0.2790063620894774 -0.0766429300771483 -0.1799803375870361
  O   0.1760063540894776  0.4209570889228516  0.3161196704129636
  O   0.0198063250894773 -0.4772429280771484 -0.3780803675870358
  O  -0.3239936229105225  0.0227570529228516  0.1219196324129641
  O  -0.4801936449105225 -0.0790429410771485 -0.1838803295870361
  O  -0.4875936509105228 -0.4028429240771483  0.0919196604129642
  O  -0.3165936469105224  0.3465570809228513 -0.1538803575870360
  O   0.0124063490894775 -0.1534429190771485  0.3461196424129637
  O   0.1834063530894776  0.0971570609228516 -0.4080803395870362
  O   0.4902063610894776  0.4677570459228514  0.0798196794129640
  O  -0.2943936589105223  0.4759570709228515 -0.1417803765870360
  O  -0.0097936389105224 -0.0240429040771487  0.3582196234129637
  O   0.2056063410894775 -0.0322429240771485 -0.4201803205870362
  O  -0.4998936359105224  0.3378570679228514  0.0504196284129637
  O  -0.3042936329105221 -0.3941429260771483 -0.1123803255870361
  O   0.0001063350894777  0.1058570739228513  0.3876196744129634
  O   0.1957063380894777 -0.1621429320771483 -0.4495803715870359
  O   0.2982063440894773 -0.3983429220771486  0.1107196804129642
  O  -0.1023936269105223  0.3420570489228516 -0.1726803775870360
  O  -0.2017936709105224 -0.1579429510771484  0.3273196224129639
  O   0.3976063730894776  0.1016570929228515 -0.3892803195870360
  O   0.3078063580894774  0.4744570709228518  0.0682196614129640
  O  -0.1119936709105225  0.4692570569228516 -0.1301803585870360
  O  -0.1921936269105222 -0.0307429430771485  0.3698196414129635
  O   0.3880063290894775 -0.0255429150771484 -0.4317803385870360
  O   0.2927063550894772  0.3443570729228515  0.0502196554129637
  O  -0.0968936679105225 -0.4006429310771484 -0.1121803525870362
  O  -0.2072936299105226  0.0993570689228516  0.3878196474129635
  O   0.4031063320894776 -0.1556429270771484 -0.4497803445870358
  O   0.1011063510894778 -0.4766429290771485  0.2649196384129638
  O   0.0947063560894774  0.4203570489228514 -0.3268803355870360
  O  -0.3988936539105225 -0.0796429220771484  0.1731196644129640
  O  -0.4052936439105225  0.0233570929228515 -0.2350803615870360
  O   0.0956063270894776  0.3243570919228516  0.2592196464129639
  O   0.1002063510894775 -0.3806429500771484 -0.3211803435870359
  O  -0.4043936429105226  0.1193570499228515  0.1788196564129638
  O  -0.3997936249105224 -0.1756429080771484 -0.2407803535870361
  O  -0.4781936409105226  0.2217570539228515  0.1277196404129637
  O  -0.3259936569105223 -0.2780429120771484 -0.1896803375870360
  O   0.0218063590894775  0.2219570879228513  0.3103196624129635
  O   0.1740063430894776 -0.2782429460771483 -0.3722803595870358
  O   0.2966063470894773  0.2283570769228515  0.1334196324129642
  O  -0.1007936599105226 -0.2846429350771484 -0.1953803295870360
  O  -0.2033936379105223  0.2153570649228516  0.3046196704129638
  O   0.3992063400894776 -0.2716429230771487 -0.3665803675870360
  O   0.3801063600894773  0.2193570729228516 -0.4633803515870362
  O  -0.1842936279105225 -0.2756429310771484  0.4014196394129638
  O  -0.1198936699105224  0.2243570689228515 -0.0985803605870361
  O   0.3157063420894774 -0.2806429270771484  0.0366196634129639
  O   0.2080063520894775  0.2192570569228515 -0.4612803455870362
  O  -0.0121936799105224 -0.2755429150771485  0.3993196484129640
  O  -0.2919936179105225  0.2244570849228515 -0.1006803515870360
  O   0.4878063500894774 -0.2807429430771486  0.0387196544129638
  O   0.4778063590894777 -0.0778429210771483  0.2282196284129637
  O  -0.2819936279105221  0.0215570929228512 -0.2901803255870363
  O  -0.0221936699105227 -0.4784429370771486  0.2098196744129635
  O   0.2180063430894776  0.4221570489228516 -0.2717803715870359
  O   0.4122063520894774 -0.0801429150771484  0.3936196564129636
  O  -0.2163936499105223  0.0238570569228516 -0.4555803465870362
  O  -0.0877936479105226 -0.4761429430771484  0.0444196464129638
  O   0.2836063500894774  0.4198570849228516 -0.1063803435870361
  O   0.2970063540894774 -0.0963429210771485  0.4784196514129637
  O  -0.1011936669105225  0.0400570629228516  0.4596196414129638
  O  -0.2029936309105224 -0.4599429370771484 -0.0403803585870361
  O   0.3988063330894775  0.4036570789228515 -0.0215803385870361
  O   0.1791063550894774 -0.0803429190771482  0.4021196364129639
  O   0.0167063470894773  0.0240570309228516 -0.4640803485870357
  O  -0.3208936449105226 -0.4759429390771486  0.0359196664129636
  O  -0.4832936529105225  0.4196571109228515 -0.0978803635870360
  O   0.2185063510894773 -0.0930429400771484  0.2163196804129635
  O  -0.0226936339105226  0.0367571119228516 -0.2782803775870364
  O  -0.2814936639105223 -0.4632429180771485  0.2217196224129640
  O   0.4773063660894776  0.4069570299228515 -0.2836803195870363
  O   0.3484063450894774 -0.0880429150771485  0.2239196304129640
  O  -0.1525936129105225  0.0317570569228515 -0.2858803275870362
  O  -0.1515936849105228 -0.4682429430771484  0.2141196724129637
  O   0.3474063570894774  0.4119570849228515 -0.2760803695870362
  O   0.4776063560894775  0.1308570499228514  0.2521196604129633
  O  -0.2817936539105223 -0.1871429080771483 -0.3140803575870361
  O  -0.0223936439105223  0.3128570919228517  0.1859196424129637
  O   0.2182063460894774 -0.3691429500771484 -0.2478803395870363
  O   0.4127063450894776  0.1177570819228515  0.4182196264129638
  O  -0.2168936729105226 -0.1740429400771484 -0.4801803495870360
  O  -0.0872936249105223  0.3259570599228514  0.0198196764129639
  O   0.2831063570894774 -0.3822429180771485 -0.0817803445870362
  O   0.2940063480894777  0.1231570839228513  0.4960196524129640
  O  -0.0981936459105226 -0.1794429420771484  0.4420196414129640
  O  -0.2059936519105223  0.3205570579228516 -0.0579803585870360
  O   0.4018063540894776 -0.3768429160771481 -0.0039803385870361
  O   0.1801063490894776  0.1277570729228514  0.4037196634129638
  O   0.0157063600894776 -0.1840429310771482 -0.4656803455870357
  O  -0.3198936579105224  0.3159570689228515  0.0343196394129637
  O  -0.4842936399105223 -0.3722429270771485 -0.0962803365870361
  O   0.2211063500894774  0.1396570799228516  0.2186196444129639
  O  -0.0252936479105226 -0.1959429380771482 -0.2805803415870364
  O  -0.2788936499105223  0.3040570619228515  0.2194196584129639
  O   0.4747063520894776 -0.3603429200771484 -0.2813803555870362
  O   0.3476063460894773  0.1412570479228514  0.2546196584129636
  O  -0.1517936589105226 -0.1975429060771483 -0.3165803555870363
  O  -0.1523936389105225  0.3024570939228515  0.1834196444129639
  O   0.3482063410894776 -0.3587429520771482 -0.2453803415870363
  O   0.4033063650894775  0.0248570439228515  0.2777196764129637
  O  -0.2074936629105224 -0.0811429020771484 -0.3396803735870362
  O  -0.0966936349105225  0.4188570979228514  0.1603196264129636
  O   0.2925063370894775 -0.4751429560771485 -0.2222803235870361
  O   0.1830063540894775  0.0237570999228516  0.2856196764129638
  O   0.0128063560894773 -0.0800429580771485 -0.3475803735870362
  O  -0.3169936539105225  0.4199570419228515  0.1524196264129640
  O  -0.4871936439105224 -0.4762429000771484 -0.2143803235870360
  O  -0.4834936559105225 -0.1567429300771483  0.0805196764129639
  O  -0.3206936119105223  0.1004570719228514 -0.1424803735870361
  O   0.0165063140894777 -0.3995429280771483  0.3575196264129638
  O   0.1793063580894776  0.3432570699228514 -0.4194803235870359
  O  -0.4866936509105226 -0.0266429190771485  0.0555196404129639
  O  -0.3174936769105220 -0.0296429390771485 -0.1174803375870361
  O   0.0133063790894772  0.4703570609228516  0.3825196624129640
  O   0.1825063530894777  0.4733570809228516 -0.4444803595870361
  O   0.4917063410894775  0.1038570999228514  0.0603196624129638
  O  -0.2958936689105222 -0.1601429580771485 -0.1222803595870361
  O  -0.0082936289105227  0.3398570419228515  0.3777196404129637
  O   0.2041063610894773 -0.3961429000771484 -0.4396803375870359
  O   0.2879063490894773 -0.1570429210771485  0.0843196514129638
  O  -0.0920936469105225  0.1007570629228516 -0.1462803485870361
  O  -0.2120936509105222 -0.3992429370771484  0.3537196514129637
  O   0.4079063530894775  0.3429570789228515 -0.4156803485870361
  O   0.2841063440894773 -0.0249429340771485  0.0827196244129638
  O  -0.0882936719105225 -0.0313429240771486 -0.1446803215870360
  O  -0.2158936259105222  0.4686570759228514  0.3553196784129636
  O   0.4117063580894775  0.4750570659228516 -0.4172803755870360
  O   0.3053063450894775  0.1044570799228514  0.0776196714129640
  O  -0.1094936129105224 -0.1607429380771483 -0.1395803685870360
  O  -0.1946936849105223  0.3392570619228517  0.3604196314129636
  O   0.3905063570894775 -0.3955429200771485 -0.4223803285870362
  O   0.0940063590894775 -0.0705429310771484  0.2586196664129634
  O   0.1018063510894778  0.0142570729228515 -0.3205803635870361
  O  -0.4059936409105226 -0.4857429270771485  0.1794196364129637
  O  -0.3981936569105224  0.4294570689228514 -0.2413803335870361
  O   0.0966063740894776  0.1199570899228515  0.2570196394129636
  O   0.0992063510894778 -0.1762429480771484 -0.3189803365870362
  O  -0.4033936559105226  0.3237570519228514  0.1810196634129639
  O  -0.4007936719105225 -0.3800429100771482 -0.2429803605870362
  O  -0.4540814668610200  0.4278234582650966  0.4805679529389861
  O  -0.4762369598535708  0.0505606148476076 -0.4370488105330325
  O   0.0707535000068973 -0.1683643459447277 -0.1710793204026262
  O   0.1269188753384598 -0.2117461337867435  0.2193736958186220
  O   0.1601977009048126  0.2934138184336701  0.0824799979922961
  O   0.2109009253024001  0.1011802221216260 -0.0062378042119295
  O  -0.2608521673765618  0.4288264736510960  0.0021938541936048
  O  -0.0452981031714570  0.1258297709042521 -0.4748209460085965
  O  -0.4230870302061169  0.3152782885261336 -0.0897642837091872
  O  -0.3841464188355490  0.1726013753366213 -0.0782126648038654
  O  -0.1760151579236015  0.2879309343087340 -0.4408570397757681
  O  -0.4580499126880175 -0.3193629271008531 -0.4731814754729959
  O  -0.1505962821533360 -0.2427913571155701 -0.0645701035492658
  O   0.3704824048629289  0.2196645871525397 -0.0748504483604371
  O  -0.4387725042951971 -0.2391514215631821  0.2717270599133456
  O   0.4243329273418350 -0.4581332598514263 -0.1122804793479599
  O   0.0429759745956875 -0.2488325458996935  0.0213674605101770
  O  -0.0030478312344999 -0.0063758623037564  0.0269067422945147
  Al  0.4115863440894775 -0.4972429290771485  0.3054396514129635
  Al -0.0976536269105224  0.4160070419228514 -0.2176703215870361
  Al  0.1724863650894775 -0.1996229290771483 -0.3502803445870359
  Al  0.3711563650894776  0.2959570889228516 -0.4950103495870362
  Al -0.1250536439105227 -0.4670329390771485 -0.0603803395870364
  Al  0.1688663510894777 -0.0549929140771486  0.2905796764129638
  Al  0.1705863470894775  0.1026770469228515  0.2914496664129639
  Al  0.0252263550894773 -0.1589629050771484 -0.3534103635870360
  H   0.4977112763096119 -0.4376031603584666  0.2950144326436567
  H  -0.0822627068366915  0.3099526773630785 -0.2193483563111884
  H   0.1762562728259227 -0.2793754170935581 -0.4454867582121302
  H   0.4493897324889637  0.3190299354561599 -0.4010176726630383
  H  -0.2035982899281716 -0.4430121993028222  0.0284589448786012
  H   0.2300584298377488  0.0234560570998956  0.2665047955524869
  H   0.0958332113832987  0.1132189816220845  0.1844129843218492
  H   0.0029518504097754 -0.2287371340013262 -0.2460701947927928
  H  -0.3431372853204246  0.4782489411982864  0.3951755230095939
  H  -0.3190022213362043  0.4197541590709819  0.4881506523550334
  H  -0.3054089381944602 -0.4935496948417443 -0.4922662149218273
  H  -0.4458217415022254 -0.4453549883937086  0.4269839873926431
  H  -0.4900554522098741 -0.4540141682331114 -0.4594288448418737
  H  -0.4103522558696526 -0.4157507002684881 -0.4596528327916571
  H  -0.4359071432632388  0.3834682628308692  0.4906324173500662
  H  -0.4047729381543961  0.4665333085884864 -0.3958558084840633
  H  -0.4710242543454497  0.0660218736316938  0.3625361032424658
  H  -0.4147106445747914  0.0015846632728564  0.3967918339090446
  H  -0.3838973633328954  0.0798083876457742  0.3550406986677847
  H  -0.4847567817272706  0.1696983333853890  0.4790465734117328
  H  -0.4380800813771923  0.1733165600260932 -0.4089868944145056
  H  -0.3979126821943341  0.1854993694321616  0.4742691857234757
  H  -0.4692931153108089  0.0025951889048359 -0.4386163894130524
  H  -0.3759822814141509  0.0706783393430603 -0.4583439171624912
  H   0.1044022338185066 -0.1339648212774971 -0.1685960073261587
  H   0.0379482758028919 -0.1558951293475996 -0.1220329795374504
  H   0.1646436070763537 -0.1845131642624087  0.2373929042239533
  H   0.0898569378274960 -0.1813125708473320  0.2140131050050317
  H   0.1438394772944815  0.2646248154937001  0.1348809862080362
  H   0.2045561426472635  0.2780631364736310  0.0679287802039647
  H   0.1839324575744010  0.1389977703638965 -0.0256383720927384
  H   0.1879827410856012  0.0618394578471193 -0.0301872792769975
  H  -0.2422307866203650  0.4034422037996324  0.0567337799531138
  H  -0.3075714477822482  0.4182887451872110  0.0012718649835302
  H  -0.0000309355639367  0.1383676310167243 -0.4606452153682845
  H  -0.0670941427984200  0.1662556601365184 -0.4970852225952865
  H  -0.4689418019605711  0.3179067671424975 -0.1100651563869161
  H  -0.4082646134204699  0.2708874674484345 -0.1079243612497218
  H  -0.4159196136947703  0.1795883888684559 -0.0253720240514417
  H  -0.4095737551436309  0.1702594907845466 -0.1391144574154450
  H  -0.1601172146646983  0.3065663151361386 -0.3788561146239532
  H  -0.1478983509834777  0.2498986264859138 -0.4549026102181983
  H  -0.4185124533610347 -0.3046888382028774  0.4925905781345472
  H  -0.4456193356111040 -0.3247406922768359 -0.4041148845981966
  H  -0.1105594007580588 -0.2335565348779535 -0.0275675047435553
  H  -0.1865550695757882 -0.2385380580949775 -0.0174660351245375
  H   0.3257666243174093  0.2043910717862141 -0.0868905281028642
  H   0.3949429778844811  0.2101279863096592 -0.1350930155410932
  H  -0.4715794768915763 -0.2681208822562100  0.3016186658975410
  H  -0.3962907895804384 -0.2589632861616871  0.2870096513863789
  H   0.3973691644868499 -0.4328170480909028 -0.1583457770520618
  H   0.3939608644091078 -0.4776057147017138 -0.0647550130549341
  H   0.0007755679874802 -0.2386490804275454 -0.0090627683779190
  H   0.0522336315959094 -0.2950482046053783  0.0050173713137869
  H   0.0137785129187026  0.0370165196019337  0.0074102369417505
  H  -0.0107306816842027 -0.0306406572981773 -0.0343169792362652
  C  -0.4090862442963167  0.4757490969155657 -0.4768433201920232
  C  -0.3401340612768762  0.4698832259464644  0.4758892672122407
  C  -0.4405791417909943 -0.4555673903365103 -0.4930308948718440
  C  -0.4242648279572130  0.0819269373290181 -0.4934985563589124
  C  -0.4233376091415488  0.0559868620435595  0.3989136159960968
  C  -0.4368191641516334  0.1572306307580673 -0.4870633582297392
